2024_89_CemigReconfigurationCases/1_AlimsCemig/VZPU08/VZPU08SegmentosMT.dss
new line.TR12158041 bus1=BMT8754523B.1,bus2=BMT8754527B.1,Phases=1,Linecode=CABA06_3_1,Length=0.035242000,Units=km
new line.TR12158042 bus1=BMT8754527B.1,bus2=BMT8754528B.1,Phases=1,Linecode=CABA06_3_1,Length=0.035242000,Units=km
new line.TR12158043 bus1=BMT8754528B.1,bus2=BMT8754529B.1,Phases=1,Linecode=CABA06_3_1,Length=0.010004000,Units=km
new line.TR12158044 bus1=BMT8754529B.1,bus2=BMT8754531B.1,Phases=1,Linecode=CABA06_3_1,Length=0.034452000,Units=km
new line.TR12158051 bus1=BMT8754531B.1,bus2=BMT160446729.1,Phases=1,Linecode=CABA06_3_1,Length=0.034943000,Units=km
new line.TR12158095 bus1=BMT2848159B.1,bus2=BMT4097505B.1,Phases=1,Linecode=CABA06_3_1,Length=0.040278000,Units=km
new line.TR12158097 bus1=BMT4097505B.1,bus2=BMT4097512B.1,Phases=1,Linecode=CABA06_3_1,Length=0.039067000,Units=km
new line.TR12158098 bus1=BMT4097512B.1,bus2=BMT149813717.1,Phases=1,Linecode=CABA06_3_1,Length=0.039067000,Units=km
new line.TR12162047 bus1=BMT154030243.1.2.3,bus2=BMT8758529B.1.2.3,Phases=3,Linecode=CABA06_3_3,Length=0.036028000,Units=km
new line.TR12162056 bus1=BMT8758529B.1.2.3,bus2=BMT154030244.1.2.3,Phases=3,Linecode=CABA06_3_3,Length=0.033748000,Units=km
new line.TR12480526 bus1=BMT161497297.1,bus2=BMT1042334B.1,Phases=1,Linecode=CABA06_3_1,Length=0.041065000,Units=km
new line.TR12480527 bus1=BMT1042334B.1,bus2=BMT1042341B.1,Phases=1,Linecode=CABA06_3_1,Length=0.029167000,Units=km
new line.TR12480528 bus1=BMT1042341B.1,bus2=BMT1042348B.1,Phases=1,Linecode=CABA06_3_1,Length=0.028029000,Units=km
new line.TR12480533 bus1=BMT1042348B.1,bus2=BMT1042355B.1,Phases=1,Linecode=CABA06_3_1,Length=0.037751000,Units=km
new line.TR12480534 bus1=BMT1042355B.1,bus2=BMT1042362B.1,Phases=1,Linecode=CABA06_3_1,Length=0.037751000,Units=km
new line.TR12480535 bus1=BMT1042362B.1,bus2=BMT1042369B.1,Phases=1,Linecode=CABA06_3_1,Length=0.038291000,Units=km
new line.TR12480541 bus1=BMT1042369B.1,bus2=BMT9090327B.1,Phases=1,Linecode=CABA06_3_1,Length=0.037459000,Units=km
new line.TR12480542 bus1=BMT9090327B.1,bus2=BMT161497298.1,Phases=1,Linecode=CABA06_3_1,Length=0.037029000,Units=km
new line.TR12544034 bus1=BMT164401542.1.2.3,bus2=BMT990219B.1.2.3,Phases=3,Linecode=CABA06_3_3,Length=0.031793000,Units=km
new line.TR12544065 bus1=BMT990219B.1.2.3,bus2=BMT990198B.1.2.3,Phases=3,Linecode=CABA06_3_3,Length=0.037123000,Units=km
new line.TR12544067 bus1=BMT990198B.1.2.3,bus2=BMT990191B.1.2.3,Phases=3,Linecode=CABA06_3_3,Length=0.036893000,Units=km
new line.TR12544115 bus1=BMT990191B.1.2.3,bus2=BMT9153164B.1.2.3,Phases=3,Linecode=CABA06_3_3,Length=0.035483000,Units=km
new line.TR12544116 bus1=BMT9153164B.1.2.3,bus2=BMT9153166B.1.2.3,Phases=3,Linecode=CABA06_3_3,Length=0.038029000,Units=km
new line.TR12544117 bus1=BMT9153166B.1.2.3,bus2=BMT164401543.1.2.3,Phases=3,Linecode=CABA06_3_3,Length=0.037592000,Units=km
new line.TR12545969 bus1=BMT164449483.2,bus2=BMT164449486.2,Phases=1,Linecode=CAB202_3_1,Length=0.048897000,Units=km
new line.TR12545973 bus1=BMT164452112.2,bus2=BMT9155057B.2,Phases=1,Linecode=CAB202_3_1,Length=0.074124000,Units=km
new line.TR12545980 bus1=BMT9155057B.2,bus2=BMT9155059B.2,Phases=1,Linecode=CAB202_3_1,Length=0.118896000,Units=km
new line.TR12545981 bus1=BMT9155059B.2,bus2=BMT9155064B.2,Phases=1,Linecode=CAB202_3_1,Length=0.075323000,Units=km
new line.TR12545986 bus1=BMT9155064B.2,bus2=BMT9155067B.2,Phases=1,Linecode=CAB202_3_1,Length=0.080094000,Units=km
new line.TR12546050 bus1=BMT9155067B.2,bus2=BMT9155069B.2,Phases=1,Linecode=CAB202_3_1,Length=0.096215000,Units=km
new line.TR12546051 bus1=BMT9155069B.2,bus2=BMT9155070B.2,Phases=1,Linecode=CAB202_3_1,Length=0.071450000,Units=km
new line.TR12546052 bus1=BMT9155070B.2,bus2=BMT9155071B.2,Phases=1,Linecode=CAB202_3_1,Length=0.040328000,Units=km
new line.TR12546053 bus1=BMT9155071B.2,bus2=BMT164452113.2,Phases=1,Linecode=CAB202_3_1,Length=0.022813000,Units=km
new line.TR12800447 bus1=BMT994993B.1.2.3,bus2=BMT9399712B.1.2.3,Phases=3,Linecode=CABA08_3_3,Length=0.025972000,Units=km
new line.TR12800448 bus1=BMT9399712B.1.2.3,bus2=BMT995000B.1.2.3,Phases=3,Linecode=CABA08_3_3,Length=0.008250000,Units=km
new line.TR1346743 bus1=BMT126912391.1,bus2=BMT126912398.1,Phases=1,Linecode=CAB202_3_1,Length=0.097614000,Units=km
new line.TR1346750 bus1=BMT163088127.1,bus2=BMT163088126.1,Phases=1,Linecode=CAB102_3_1,Length=0.068912000,Units=km
new line.TR1346778 bus1=BMT1979319B.1,bus2=BMT2788106B.1,Phases=1,Linecode=CAB202_3_1,Length=0.083634000,Units=km
new line.TR1346792 bus1=BMT126912468.1,bus2=BMT126912475.1,Phases=1,Linecode=CAB202_3_1,Length=0.130052000,Units=km
new line.TR1346799 bus1=BMT126912629.1,bus2=BMT126912636.1,Phases=1,Linecode=CAB202_3_1,Length=0.089847000,Units=km
new line.TR1346806 bus1=BMT126912629.1,bus2=BMT1979445B.1,Phases=1,Linecode=CAB202_3_1,Length=0.105990000,Units=km
new line.TR1346897 bus1=BMT164999051.1,bus2=BMT164999052.1,Phases=1,Linecode=CAB202_3_1,Length=0.017812000,Units=km
new line.TR1346904 bus1=BMT164999051.1,bus2=BMT1979417B.1,Phases=1,Linecode=CAB202_3_1,Length=0.105816000,Units=km
new line.TR1346925 bus1=BMT149402568.1,bus2=BMT164999056.1,Phases=1,Linecode=CAB202_3_1,Length=0.011407000,Units=km
new line.TR1346946 bus1=BMT126912643.1,bus2=BMT126912650.1,Phases=1,Linecode=CAB102_3_1,Length=0.082798000,Units=km
new line.TR1346953 bus1=BMT163088126.1,bus2=BMT1979473B.1,Phases=1,Linecode=CAB102_3_1,Length=0.049183000,Units=km
new line.TR1346960 bus1=BMT1979473B.1,bus2=BMT3115657B.1,Phases=1,Linecode=CAB102_3_1,Length=0.052021000,Units=km
new line.TR1346967 bus1=BMT1979480B.1,bus2=BMT3115664B.1,Phases=1,Linecode=CAB102_3_1,Length=0.063665000,Units=km
new line.TR1346974 bus1=BMT1979487B.1,bus2=BMT126912216.1,Phases=1,Linecode=CAB102_3_1,Length=0.079107000,Units=km
new line.TR1346995 bus1=BMT135503323.2,bus2=BMT135503330.2,Phases=1,Linecode=CAB202_3_1,Length=0.109222000,Units=km
new line.TR1347009 bus1=BMT135503330.2,bus2=BMT135503337.2,Phases=1,Linecode=CAB102_3_1,Length=0.041320000,Units=km
new line.TR1347037 bus1=BMT126912755.1,bus2=BMT126912762.1,Phases=1,Linecode=CAB202_3_1,Length=0.156603000,Units=km
new line.TR1347114 bus1=BMT163458874.3,bus2=BMT126911964.3,Phases=1,Linecode=CAB102_3_1,Length=0.063846000,Units=km
new line.TR1347121 bus1=BMT135505423.3,bus2=BMT135505430.3,Phases=1,Linecode=CAB102_3_1,Length=0.040833000,Units=km
new line.TR1347177 bus1=BMT159241834.2,bus2=BMT159241836.2,Phases=1,Linecode=CAB102_3_1,Length=0.016286000,Units=km
new line.TR1347184 bus1=BMT159241834.2,bus2=BMT159241837.2,Phases=1,Linecode=CAB202_3_1,Length=0.074090000,Units=km
new line.TR12152851 bus1=BMT1053639B.1.2.3,bus2=BMT8748606B.1.2.3,Phases=3,Linecode=CAB103_3_3,Length=0.034496000,Units=km
new line.TR12152852 bus1=BMT8748606B.1.2.3,bus2=BMT172026854.1.2.3,Phases=3,Linecode=CAB103_3_3,Length=0.036250000,Units=km
new line.TR12169660 bus1=BMT982491B.1.2.3,bus2=BMT158555355.1.2.3,Phases=3,Linecode=CABA08_3_3,Length=0.006086000,Units=km
new line.TR12169668 bus1=BMT158555355.1.2.3,bus2=BMT982498B.1.2.3,Phases=3,Linecode=CABA06_3_3,Length=0.020405000,Units=km
new line.TR12169669 bus1=BMT158555355.1.2.3,bus2=BMT158555356.1.2.3,Phases=3,Linecode=CABA06_3_3,Length=0.016131000,Units=km
new line.TR12169731 bus1=BMT171501726.1.2.3,bus2=BMT171501728.1.2.3,Phases=3,Linecode=CABA06_3_3,Length=0.020624000,Units=km
new line.TR12280632 bus1=BMT164211404.2,bus2=BMT8644761B.2,Phases=1,Linecode=CABA06_3_1,Length=0.034146000,Units=km
new line.TR12280633 bus1=BMT8644761B.2,bus2=BMT8883369B.2,Phases=1,Linecode=CABA06_3_1,Length=0.031157000,Units=km
new line.TR12280634 bus1=BMT8883369B.2,bus2=BMT8883370B.2,Phases=1,Linecode=CABA06_3_1,Length=0.030162000,Units=km
new line.TR12280635 bus1=BMT8883370B.2,bus2=BMT8883371B.2,Phases=1,Linecode=CABA06_3_1,Length=0.030162000,Units=km
new line.TR12280636 bus1=BMT8883371B.2,bus2=BMT8883373B.2,Phases=1,Linecode=CABA06_3_1,Length=0.030162000,Units=km
new line.TR12280637 bus1=BMT8883373B.2,bus2=BMT8883374B.2,Phases=1,Linecode=CABA06_3_1,Length=0.028172000,Units=km
new line.TR12280638 bus1=BMT8883374B.2,bus2=BMT8883375B.2,Phases=1,Linecode=CABA06_3_1,Length=0.030162000,Units=km
new line.TR12280639 bus1=BMT8883375B.2,bus2=BMT8883377B.2,Phases=1,Linecode=CABA06_3_1,Length=0.030079000,Units=km
new line.TR12280640 bus1=BMT8883377B.2,bus2=BMT164211405.2,Phases=1,Linecode=CABA06_3_1,Length=0.030079000,Units=km
new line.TR12576136 bus1=BMT165796058.1.2.3,bus2=BMT986215B.1.2.3,Phases=3,Linecode=CABA06_3_3,Length=0.031061000,Units=km
new line.TR12576139 bus1=BMT986215B.1.2.3,bus2=BMT165796060.1.2.3,Phases=3,Linecode=CABA06_3_3,Length=0.034943000,Units=km
new line.TR1971738 bus1=BMT2588767B.1.2.3,bus2=BMT2588781B.1.2.3,Phases=3,Linecode=CAB202_3_3,Length=0.148659000,Units=km
new line.TR1971752 bus1=BMT2588781B.1.2.3,bus2=BMT2588788B.1.2.3,Phases=3,Linecode=CAB202_3_3,Length=0.128133000,Units=km
new line.TR1971759 bus1=BMT2588788B.1.2.3,bus2=BMT2588802B.1.2.3,Phases=3,Linecode=CAB202_3_3,Length=0.121876000,Units=km
new line.TR1971766 bus1=BMT2588802B.1.2.3,bus2=BMT2588809B.1.2.3,Phases=3,Linecode=CAB202_3_3,Length=0.129608000,Units=km
new line.TR1971773 bus1=BMT2588809B.1.2.3,bus2=BMT2588823B.1.2.3,Phases=3,Linecode=CAB202_3_3,Length=0.132298000,Units=km
new line.TR1971787 bus1=BMT2588823B.1.2.3,bus2=BMT171501732.1.2.3,Phases=3,Linecode=CAB202_3_3,Length=0.102593000,Units=km
new line.TR1971808 bus1=BMT171501732.2,bus2=BMT2588865B.2,Phases=1,Linecode=CAB202_3_1,Length=0.111332000,Units=km
new line.TR1971815 bus1=BMT171501732.1.2.3,bus2=BMT2826543B.1.2.3,Phases=3,Linecode=CAB202_3_3,Length=0.108214000,Units=km
new line.TR1971836 bus1=BMT2588865B.2,bus2=BMT171501734.2,Phases=1,Linecode=CAB202_3_1,Length=0.164859000,Units=km
new line.TR1972375 bus1=BMT160446728.1,bus2=BMT160446727.1,Phases=1,Linecode=CAB103_3_1,Length=0.099679000,Units=km
new line.TR1972382 bus1=BMT160446728.1,bus2=BMT160446730.1,Phases=1,Linecode=CAB103_3_1,Length=0.027324000,Units=km
new line.TR2101854 bus1=BMT164177545.2,bus2=BMT2745210B.2,Phases=1,Linecode=CAB202_3_1,Length=0.153384000,Units=km
new line.TR2101868 bus1=BMT164177548.2,bus2=BMT164177553.2,Phases=1,Linecode=CAB102_3_1,Length=0.028472000,Units=km
new line.TR2101889 bus1=BMT164177549.2,bus2=BMT164177550.2,Phases=1,Linecode=CAB202_3_1,Length=0.180207000,Units=km
new line.TR2101896 bus1=BMT164177549.2,bus2=BMT2745245B.2,Phases=1,Linecode=CAB202_3_1,Length=0.112494000,Units=km
new line.TR2101903 bus1=BMT164177551.2,bus2=BMT164177552.2,Phases=1,Linecode=CAB102_3_1,Length=0.070206000,Units=km
new line.TR2101910 bus1=BMT2745245B.2,bus2=BMT164177551.2,Phases=1,Linecode=CAB202_3_1,Length=0.116446000,Units=km
new line.TR2170048 bus1=BMT135534515.2,bus2=BMT135534529.2,Phases=1,Linecode=CAB103_3_1,Length=0.030426000,Units=km
new line.TR2170055 bus1=BMT135534501.2,bus2=BMT135534508.2,Phases=1,Linecode=CAB202_3_1,Length=0.170068000,Units=km
new line.TR2170062 bus1=BMT135534501.2,bus2=BMT135534515.2,Phases=1,Linecode=CAB202_3_1,Length=0.106146000,Units=km
new line.TR2170069 bus1=BMT135534501.2,bus2=BMT3762674B.2,Phases=1,Linecode=CAB202_3_1,Length=0.042396000,Units=km
new line.TR2170090 bus1=BMT135534480.2,bus2=BMT135534487.2,Phases=1,Linecode=CAB103_3_1,Length=0.017472000,Units=km
new line.TR2170097 bus1=BMT135534480.2,bus2=BMT135534494.2,Phases=1,Linecode=CAB202_3_1,Length=0.073955000,Units=km
new line.TR2170104 bus1=BMT2826144B.2,bus2=BMT135534480.2,Phases=1,Linecode=CAB202_3_1,Length=0.085034000,Units=km
new line.TR2170125 bus1=BMT135534466.2,bus2=BMT135534473.2,Phases=1,Linecode=CAB103_3_1,Length=0.085181000,Units=km
new line.TR2170132 bus1=BMT135534466.2,bus2=BMT2826144B.2,Phases=1,Linecode=CAB202_3_1,Length=0.109158000,Units=km
new line.TR2170139 bus1=BMT2826172B.2,bus2=BMT135534466.2,Phases=1,Linecode=CAB202_3_1,Length=0.197406000,Units=km
new line.TR2170153 bus1=BMT2826186B.2,bus2=BMT2826172B.2,Phases=1,Linecode=CAB202_3_1,Length=0.090513000,Units=km
new line.TR2170160 bus1=BMT2826193B.2,bus2=BMT2826186B.2,Phases=1,Linecode=CAB202_3_1,Length=0.104162000,Units=km
new line.TR2170167 bus1=BMT135534452.2,bus2=BMT135534459.2,Phases=1,Linecode=CAB103_3_1,Length=0.067109000,Units=km
new line.TR2170174 bus1=BMT135534452.2,bus2=BMT2826193B.2,Phases=1,Linecode=CAB202_3_1,Length=0.087676000,Units=km
new line.TR2170195 bus1=BMT135534445.2,bus2=BMT135534452.2,Phases=1,Linecode=CAB202_3_1,Length=0.133188000,Units=km
new line.TR2170202 bus1=BMT126912867.2,bus2=BMT2826242B.2,Phases=1,Linecode=CAB202_3_1,Length=0.088041000,Units=km
new line.TR2170216 bus1=BMT135534291.2,bus2=BMT126912867.2,Phases=1,Linecode=CAB202_3_1,Length=0.566479000,Units=km
new line.TR2170230 bus1=BMT2826242B.2,bus2=BMT2826249B.2,Phases=1,Linecode=CAB202_3_1,Length=0.068904000,Units=km
new line.TR2170237 bus1=BMT2826249B.2,bus2=BMT2826256B.2,Phases=1,Linecode=CAB202_3_1,Length=0.076188000,Units=km
new line.TR2170244 bus1=BMT2826256B.2,bus2=BMT2826263B.2,Phases=1,Linecode=CAB202_3_1,Length=0.079644000,Units=km
new line.TR2170251 bus1=BMT2826263B.2,bus2=BMT126912874.2,Phases=1,Linecode=CAB202_3_1,Length=0.064872000,Units=km
new line.TR2170258 bus1=BMT126912874.2,bus2=BMT135534298.2,Phases=1,Linecode=CAB202_3_1,Length=0.113063000,Units=km
new line.TR1347191 bus1=BMT171501740.1,bus2=BMT171501741.1,Phases=1,Linecode=CAB102_3_1,Length=0.029542000,Units=km
new line.TR1347205 bus1=BMT171501738.1,bus2=BMT171501739.1,Phases=1,Linecode=CAB102_3_1,Length=0.038029000,Units=km
new line.TR1347219 bus1=BMT171501738.1.2.3,bus2=BMT126911894.1.2.3,Phases=3,Linecode=CAB203_3_3,Length=0.150771000,Units=km
new line.TR1347240 bus1=BMT171501736.2,bus2=BMT171501737.2,Phases=1,Linecode=CAB103_3_1,Length=0.017037000,Units=km
new line.TR1347254 bus1=BMT164449483.2,bus2=BMT164449485.2,Phases=1,Linecode=CAB202_3_1,Length=0.071897000,Units=km
new line.TR1347268 bus1=BMT1979704B.2,bus2=BMT126913189.2,Phases=1,Linecode=CAB202_3_1,Length=0.206702000,Units=km
new line.TR1347275 bus1=BMT166240201.2,bus2=BMT1979718B.2,Phases=1,Linecode=CAB202_3_1,Length=0.099543000,Units=km
new line.TR1347282 bus1=BMT1979718B.2,bus2=BMT1979725B.2,Phases=1,Linecode=CAB202_3_1,Length=0.102354000,Units=km
new line.TR1347296 bus1=BMT166240202.2,bus2=BMT166240203.2,Phases=1,Linecode=CAB202_3_1,Length=0.118761000,Units=km
new line.TR1347331 bus1=BMT166240206.2,bus2=BMT166240207.2,Phases=1,Linecode=CAB202_3_1,Length=0.101883000,Units=km
new line.TR1347338 bus1=BMT166240206.2,bus2=BMT1979774B.2,Phases=1,Linecode=CAB202_3_1,Length=0.171520000,Units=km
new line.TR1347359 bus1=BMT166240208.2,bus2=BMT166240209.2,Phases=1,Linecode=CAB202_3_1,Length=0.051440000,Units=km
new line.TR1347366 bus1=BMT166240209.2,bus2=BMT166240211.2,Phases=1,Linecode=CAB102_3_1,Length=0.031636000,Units=km
new line.TR1347387 bus1=BMT135536706.2,bus2=BMT3560304B.2,Phases=1,Linecode=CAB202_3_1,Length=0.126228000,Units=km
new line.TR1347422 bus1=BMT144435435.2,bus2=BMT144435442.2,Phases=1,Linecode=CAB202_3_1,Length=0.156382000,Units=km
new line.TR1347436 bus1=BMT166240214.2,bus2=BMT126913287.2,Phases=1,Linecode=CAB202_3_1,Length=0.155602000,Units=km
new line.TR1347457 bus1=BMT148937357.2,bus2=BMT5227270B.2,Phases=1,Linecode=CAB202_3_1,Length=0.149223000,Units=km
new line.TR1347464 bus1=BMT171501733.2,bus2=BMT171501735.2,Phases=1,Linecode=CAB202_3_1,Length=0.127054000,Units=km
new line.TR1347471 bus1=BMT171501733.1.2.3,bus2=BMT2588767B.1.2.3,Phases=3,Linecode=CAB202_3_3,Length=0.122429000,Units=km
new line.TR1347485 bus1=BMT159241837.2,bus2=BMT159241838.2,Phases=1,Linecode=CAB103_3_1,Length=0.048061000,Units=km
new line.TR1347492 bus1=BMT126912811.2,bus2=BMT1979928B.2,Phases=1,Linecode=CAB202_3_1,Length=0.079234000,Units=km
new line.TR1347513 bus1=BMT1979956B.3,bus2=BMT135505444.3,Phases=1,Linecode=CAB102_3_1,Length=0.069864000,Units=km
new line.TR1347520 bus1=BMT135505444.3,bus2=BMT2331587B.3,Phases=1,Linecode=CAB102_3_1,Length=0.066397000,Units=km
new line.TR1347527 bus1=BMT1979970B.3,bus2=BMT126912048.3,Phases=1,Linecode=CAB102_3_1,Length=0.047093000,Units=km
new line.TR1347534 bus1=BMT1979970B.3,bus2=BMT2331587B.3,Phases=1,Linecode=CAB102_3_1,Length=0.071723000,Units=km
new line.TR1347541 bus1=BMT126912048.3,bus2=BMT135505451.3,Phases=1,Linecode=CAB202_3_1,Length=0.115571000,Units=km
new line.TR1347555 bus1=BMT135505451.3,bus2=BMT135505458.3,Phases=1,Linecode=CAB202_3_1,Length=0.226198000,Units=km
new line.TR1347562 bus1=BMT135505479.3,bus2=BMT1979998B.3,Phases=1,Linecode=CAB202_3_1,Length=0.083484000,Units=km
new line.TR1347576 bus1=BMT1979998B.3,bus2=BMT2786349B.3,Phases=1,Linecode=CAB202_3_1,Length=0.071050000,Units=km
new line.TR1347583 bus1=BMT1980005B.3,bus2=BMT135505493.3,Phases=1,Linecode=CAB202_3_1,Length=0.115709000,Units=km
new line.TR1347597 bus1=BMT1980054B.2,bus2=BMT135503344.2,Phases=1,Linecode=CAB202_3_1,Length=0.106042000,Units=km
new line.TR1347604 bus1=BMT126912398.1,bus2=BMT1044644B.1,Phases=1,Linecode=CAB102_3_1,Length=0.052175000,Units=km
new line.TR1347611 bus1=BMT126912412.1,bus2=BMT126912419.1,Phases=1,Linecode=CAB202_3_1,Length=0.107397000,Units=km
new line.TR1347625 bus1=BMT126912433.1,bus2=BMT1980089B.1,Phases=1,Linecode=CAB202_3_1,Length=0.128211000,Units=km
new line.TR1347632 bus1=BMT1980089B.1,bus2=BMT126912447.1,Phases=1,Linecode=CAB202_3_1,Length=0.109282000,Units=km
new line.TR1936374 bus1=BMT2547145B.1.2.3,bus2=BMT2003700B.1.2.3,Phases=3,Linecode=CABA08_3_3,Length=0.030818000,Units=km
new line.TR1936507 bus1=BMT126911698.1.2.3,bus2=BMT1053331B.1.2.3,Phases=3,Linecode=CABA06_3_3,Length=0.055095000,Units=km
new line.TR1936514 bus1=BMT150346375.1.2.3,bus2=BMT150346376.1.2.3,Phases=3,Linecode=CAB609_3_3,Length=0.004474000,Units=km
new line.TR2182354 bus1=BMT2843490B.1.2.3,bus2=BMT2003749B.1.2.3,Phases=3,Linecode=CABA08_3_3,Length=0.036784000,Units=km
new line.TR2282307 bus1=BMT2986885B.1,bus2=BMT2986892B.1,Phases=1,Linecode=CAB103_3_1,Length=0.065325000,Units=km
new line.TR2282314 bus1=BMT2986892B.1,bus2=BMT2986899B.1,Phases=1,Linecode=CAB103_3_1,Length=0.069454000,Units=km
new line.TR2282321 bus1=BMT2986899B.1,bus2=BMT2986976B.1,Phases=1,Linecode=CAB103_3_1,Length=0.038304000,Units=km
new line.TR2282398 bus1=BMT2986962B.1,bus2=BMT2987032B.1,Phases=1,Linecode=CAB103_3_1,Length=0.062395000,Units=km
new line.TR2282412 bus1=BMT2986976B.1,bus2=BMT126912692.1,Phases=1,Linecode=CAB103_3_1,Length=0.037658000,Units=km
new line.TR2282433 bus1=BMT126912692.1,bus2=BMT2987018B.1,Phases=1,Linecode=CAB103_3_1,Length=0.037658000,Units=km
new line.TR2282440 bus1=BMT2987018B.1,bus2=BMT2986962B.1,Phases=1,Linecode=CAB103_3_1,Length=0.040624000,Units=km
new line.TR2282447 bus1=BMT2987032B.1,bus2=BMT2987039B.1,Phases=1,Linecode=CAB103_3_1,Length=0.062395000,Units=km
new line.TR2282454 bus1=BMT2987039B.1,bus2=BMT2987046B.1,Phases=1,Linecode=CAB103_3_1,Length=0.062395000,Units=km
new line.TR2282461 bus1=BMT2987046B.1,bus2=BMT2987053B.1,Phases=1,Linecode=CAB103_3_1,Length=0.062395000,Units=km
new line.TR2282468 bus1=BMT2987053B.1,bus2=BMT2987060B.1,Phases=1,Linecode=CAB103_3_1,Length=0.060983000,Units=km
new line.TR2282475 bus1=BMT2987060B.1,bus2=BMT2987067B.1,Phases=1,Linecode=CAB103_3_1,Length=0.060983000,Units=km
new line.TR2282482 bus1=BMT2987067B.1,bus2=BMT2987179B.1,Phases=1,Linecode=CAB103_3_1,Length=0.079587000,Units=km
new line.TR2282538 bus1=BMT2987179B.1,bus2=BMT126912699.1,Phases=1,Linecode=CAB103_3_1,Length=0.040278000,Units=km
new line.TR2282545 bus1=BMT126912699.1,bus2=BMT2987242B.1,Phases=1,Linecode=CAB103_3_1,Length=0.040278000,Units=km
new line.TR2282552 bus1=BMT2987242B.1,bus2=BMT4888715B.1,Phases=1,Linecode=CAB103_3_1,Length=0.041248000,Units=km
new line.TR2283728 bus1=BMT149813715.1,bus2=BMT2851036B.1,Phases=1,Linecode=CABA06_3_1,Length=0.050824000,Units=km
new line.TR12132860 bus1=BMT148938060.2,bus2=BMT8726408B.2,Phases=1,Linecode=CAB202_3_1,Length=0.119588000,Units=km
new line.TR12132861 bus1=BMT8726408B.2,bus2=BMT8726411B.2,Phases=1,Linecode=CAB202_3_1,Length=0.199101000,Units=km
new line.TR12132862 bus1=BMT8726411B.2,bus2=BMT8726412B.2,Phases=1,Linecode=CAB202_3_1,Length=0.130113000,Units=km
new line.TR12132863 bus1=BMT8726412B.2,bus2=BMT8726415B.2,Phases=1,Linecode=CAB202_3_1,Length=0.155142000,Units=km
new line.TR12132864 bus1=BMT8726415B.2,bus2=BMT8726416B.2,Phases=1,Linecode=CAB202_3_1,Length=0.157141000,Units=km
new line.TR12132865 bus1=BMT8726416B.2,bus2=BMT8726418B.2,Phases=1,Linecode=CAB202_3_1,Length=0.161175000,Units=km
new line.TR12132866 bus1=BMT8726418B.2,bus2=BMT8726421B.2,Phases=1,Linecode=CAB202_3_1,Length=0.166141000,Units=km
new line.TR12132867 bus1=BMT8726421B.2,bus2=BMT8726424B.2,Phases=1,Linecode=CAB202_3_1,Length=0.169173000,Units=km
new line.TR12132868 bus1=BMT8726424B.2,bus2=BMT8726426B.2,Phases=1,Linecode=CAB202_3_1,Length=0.156141000,Units=km
new line.TR12132869 bus1=BMT8726426B.2,bus2=BMT148938062.2,Phases=1,Linecode=CAB202_3_1,Length=0.169716000,Units=km
new line.TR12132870 bus1=BMT148938062.2,bus2=BMT148938063.2,Phases=1,Linecode=CAB103_3_1,Length=0.046029000,Units=km
new line.TR12132902 bus1=BMT148938062.2,bus2=BMT8726432B.2,Phases=1,Linecode=CAB202_3_1,Length=0.177024000,Units=km
new line.TR12132903 bus1=BMT8726432B.2,bus2=BMT8726434B.2,Phases=1,Linecode=CAB202_3_1,Length=0.216718000,Units=km
new line.TR12132904 bus1=BMT8726434B.2,bus2=BMT148938064.2,Phases=1,Linecode=CAB202_3_1,Length=0.194522000,Units=km
new line.TR12132905 bus1=BMT148938064.2,bus2=BMT8726436B.2,Phases=1,Linecode=CAB202_3_1,Length=0.098446000,Units=km
new line.TR12132906 bus1=BMT8726436B.2,bus2=BMT8726437B.2,Phases=1,Linecode=CAB202_3_1,Length=0.135471000,Units=km
new line.TR12132907 bus1=BMT8726437B.2,bus2=BMT148938065.2,Phases=1,Linecode=CAB202_3_1,Length=0.166709000,Units=km
new line.TR12132922 bus1=BMT148938064.2,bus2=BMT8726440B.2,Phases=1,Linecode=CAB202_3_1,Length=0.220858000,Units=km
new line.TR12132923 bus1=BMT8726440B.2,bus2=BMT8726441B.2,Phases=1,Linecode=CAB202_3_1,Length=0.183746000,Units=km
new line.TR12132924 bus1=BMT8726441B.2,bus2=BMT8726442B.2,Phases=1,Linecode=CAB202_3_1,Length=0.151268000,Units=km
new line.TR12132925 bus1=BMT8726442B.2,bus2=BMT8726444B.2,Phases=1,Linecode=CAB202_3_1,Length=0.140739000,Units=km
new line.TR12132926 bus1=BMT8726444B.2,bus2=BMT148938066.2,Phases=1,Linecode=CAB202_3_1,Length=0.094409000,Units=km
new line.TR12238463 bus1=BMT161627548.2,bus2=BMT8839867B.2,Phases=1,Linecode=CAB202_3_1,Length=0.106042000,Units=km
new line.TR12238464 bus1=BMT8839867B.2,bus2=BMT8839868B.2,Phases=1,Linecode=CAB202_3_1,Length=0.115424000,Units=km
new line.TR12238465 bus1=BMT8839868B.2,bus2=BMT8839870B.2,Phases=1,Linecode=CAB202_3_1,Length=0.118774000,Units=km
new line.TR12238466 bus1=BMT8839870B.2,bus2=BMT8839874B.2,Phases=1,Linecode=CAB202_3_1,Length=0.117933000,Units=km
new line.TR12238467 bus1=BMT8839874B.2,bus2=BMT8839876B.2,Phases=1,Linecode=CAB202_3_1,Length=0.141708000,Units=km
new line.TR12238468 bus1=BMT8839876B.2,bus2=BMT8839878B.2,Phases=1,Linecode=CAB202_3_1,Length=0.127526000,Units=km
new line.TR12238469 bus1=BMT8839878B.2,bus2=BMT8839881B.2,Phases=1,Linecode=CAB202_3_1,Length=0.143898000,Units=km
new line.TR12238470 bus1=BMT8839881B.2,bus2=BMT8839884B.2,Phases=1,Linecode=CAB202_3_1,Length=0.140002000,Units=km
new line.TR12238471 bus1=BMT8839884B.2,bus2=BMT8839886B.2,Phases=1,Linecode=CAB202_3_1,Length=0.153736000,Units=km
new line.TR12238472 bus1=BMT8839886B.2,bus2=BMT8839888B.2,Phases=1,Linecode=CAB202_3_1,Length=0.145636000,Units=km
...
