2024_89_CemigReconfigurationCases/1_AlimsCemig/VZPU08/VZPU08ChavesMT.dss
new line.CTR209306962 bus1=BMT2209307213.1.2.3,bus2=BMT2209306965.1.2.3,Phases=3,LineCode=tieSwitch,Length=0.001,Units=km,switch=T !numEQ 
new line.CTR209307098 bus1=BMT2209306864.1.2.3,bus2=BMT2209564385.1.2.3,Phases=3,LineCode=tieSwitch,Length=0.001,Units=km,switch=T !numEQ 
new line.CTR209307212 bus1=BMT2209564385.1.2.3,bus2=BMT2209307213.1.2.3,Phases=3,LineCode=tieSwitch,Length=0.001,Units=km,switch=T !numEQ 
new line.CTR32318 bus1=BMT126913273.2,bus2=BMT135536706.2,Phases=1,LineCode=tieSwitch1,Length=0.001,Units=km,switch=T !numEQ 176536
new line.CTR32325 bus1=BMT126912972.2,bus2=BMT140178581.2,Phases=1,LineCode=tieSwitch1,Length=0.001,Units=km,switch=T !numEQ 176537
new line.CTR848370 bus1=BMT149402568.1,bus2=BMT149402570.1,Phases=1,LineCode=tieSwitch1,Length=0.001,Units=km,switch=T !numEQ 373910
new line.CTR84853 bus1=BMT126911754.1.2.3,bus2=BMT170557008.1.2.3,Phases=3,LineCode=tieSwitch,Length=0.001,Units=km,switch=T !numEQ 114100
new line.CTR906336 bus1=BMT168792814.1,bus2=BMT168792816.1,Phases=1,LineCode=tieSwitch1,Length=0.001,Units=km,switch=T !numEQ 265964
new line.CTRR31139 bus1=BMT148374656.1.2.3,bus2=BMT148509628.1.2.3,Phases=3,LineCode=tieSwitch,Length=0.001,Units=km,switch=T !numEQ 308857
new line.CTR120238 bus1=BMT161623358.1.2.3,bus2=BMT126914428.1.2.3,Phases=3,LineCode=tieSwitch,Length=0.001,Units=km,switch=T !numEQ 88062
open line.CTR120238 term=1
new line.CTR120245 bus1=BMT126914505.1.2.3,bus2=BMT126914519.1.2.3,Phases=3,LineCode=tieSwitch,Length=0.001,Units=km,switch=T !numEQ 88063
new line.CTR120266 bus1=BMT126913623.2,bus2=BMT164177544.2,Phases=1,LineCode=tieSwitch1,Length=0.001,Units=km,switch=T !numEQ 88066
new line.CTR120273 bus1=BMT126911474.1.2.3,bus2=BMT126911481.1.2.3,Phases=3,LineCode=tieSwitch,Length=0.001,Units=km,switch=T !numEQ 88067
new line.CTR120287 bus1=BMT126911544.1.2.3,bus2=BMT172026849.1.2.3,Phases=3,LineCode=tieSwitch,Length=0.001,Units=km,switch=T !numEQ 257900
new line.CTR120378 bus1=BMT126913280.2,bus2=BMT144435428.2,Phases=1,LineCode=tieSwitch1,Length=0.001,Units=km,switch=T !numEQ 232731
new line.CTR120399 bus1=BMT126914491.1.2.3,bus2=BMT126914568.1.2.3,Phases=3,LineCode=tieSwitch,Length=0.001,Units=km,switch=T !numEQ 88086
new line.CTR120406 bus1=BMT126914484.1.2.3,bus2=BMT126914582.1.2.3,Phases=3,LineCode=tieSwitch,Length=0.001,Units=km,switch=T !numEQ 88087
new line.CTR120434 bus1=BMT126912482.1,bus2=BMT126912517.1,Phases=1,LineCode=tieSwitch1,Length=0.001,Units=km,switch=T !numEQ 88092
new line.CTR120448 bus1=BMT126914050.1.2.3,bus2=BMT161623345.1.2.3,Phases=3,LineCode=tieSwitch,Length=0.001,Units=km,switch=T !numEQ 88095
new line.CTR120469 bus1=BMT126911642.3,bus2=BMT150874625.3,Phases=1,LineCode=tieSwitch1,Length=0.001,Units=km,switch=T !numEQ 88098
new line.CTR120476 bus1=BMT126911194.1.2.3,bus2=BMT152264315.1.2.3,Phases=3,LineCode=tieSwitch,Length=0.001,Units=km,switch=T !numEQ 88099
new line.CTR120483 bus1=BMT152264328.1.2.3,bus2=BMT2721760.1.2.3,Phases=3,LineCode=tieSwitch,Length=0.001,Units=km,switch=T !numEQ 88100
open line.CTR120483 term=1
new line.CTR120539 bus1=BMT126914057.1.2.3,bus2=BMT150886748.1.2.3,Phases=3,LineCode=tieSwitch,Length=0.001,Units=km,switch=T !numEQ 88108
new line.CTR120553 bus1=BMT126914435.1.2.3,bus2=BMT171184380.1.2.3,Phases=3,LineCode=tieSwitch,Length=0.001,Units=km,switch=T !numEQ 88110
new line.CTR121225 bus1=BMT126910907.1.2.3,bus2=BMT158555352.1.2.3,Phases=3,LineCode=tieSwitch,Length=0.001,Units=km,switch=T !numEQ 88000
new line.CTR15385 bus1=BMT126913987.1,bus2=BMT149813715.1,Phases=1,LineCode=tieSwitch1,Length=0.001,Units=km,switch=T !numEQ 183208
new line.CTR63657 bus1=BMT126912216.1,bus2=BMT126912685.1,Phases=1,LineCode=tieSwitch1,Length=0.001,Units=km,switch=T !numEQ 129038
new line.CTR84881 bus1=BMT126911530.1.2.3,bus2=BMT172027314.1.2.3,Phases=3,LineCode=tieSwitch,Length=0.001,Units=km,switch=T !numEQ 114104
new line.CTR84888 bus1=BMT126911768.1.2.3,bus2=BMT170556875.1.2.3,Phases=3,LineCode=tieSwitch,Length=0.001,Units=km,switch=T !numEQ 114105
new line.CTR892793 bus1=BMT164177546.2,bus2=BMT164211397.2,Phases=1,LineCode=tieSwitch1,Length=0.001,Units=km,switch=T !numEQ 249634
new line.CTR893621 bus1=BMT164449486.2,bus2=BMT164452112.2,Phases=1,LineCode=tieSwitch1,Length=0.001,Units=km,switch=T !numEQ 182552
new line.CTR93701 bus1=BMT126911775.1.2.3,bus2=BMT160091972.1.2.3,Phases=3,LineCode=tieSwitch,Length=0.001,Units=km,switch=T !numEQ 108945
new line.CTR101835 bus1=BMT126911726.1.2.3,bus2=BMT170557150.1.2.3,Phases=3,LineCode=tieSwitch,Length=0.001,Units=km,switch=T !numEQ 104632
new line.CTR336846 bus1=BMT126912643.1,bus2=BMT126912657.1,Phases=1,LineCode=tieSwitch1,Length=0.001,Units=km,switch=T !numEQ 221318
new line.CTR74619 bus1=BMT126911740.1.2.3,bus2=BMT170557114.1.2.3,Phases=3,LineCode=tieSwitch,Length=0.001,Units=km,switch=T !numEQ 121171
new line.CTR853378 bus1=BMT150874626.3,bus2=BMT150874628.3,Phases=1,LineCode=tieSwitch1,Length=0.001,Units=km,switch=T !numEQ 385316
new line.CTR881634 bus1=BMT162628151.1.2.3,bus2=BMT159496730.1.2.3,Phases=3,LineCode=tieSwitch,Length=0.001,Units=km,switch=T !numEQ 376420
open line.CTR881634 term=1
new line.CTR22266 bus1=BMT171221984.1.2.3,bus2=BMT3970014.1.2.3,Phases=3,LineCode=tieSwitch,Length=0.001,Units=km,switch=T !numEQ 181444
open line.CTR22266 term=1
new line.CTR22280 bus1=BMT150188556.1.2.3,bus2=BMT126914358.1.2.3,Phases=3,LineCode=tieSwitch,Length=0.001,Units=km,switch=T !numEQ 181446
open line.CTR22280 term=1
new line.CTR300208 bus1=BMT126911516.1.2.3,bus2=BMT172027317.1.2.3,Phases=3,LineCode=tieSwitch,Length=0.001,Units=km,switch=T !numEQ 204376
new line.CTR64889 bus1=BMT126912461.1,bus2=BMT126912671.1,Phases=1,LineCode=tieSwitch1,Length=0.001,Units=km,switch=T !numEQ 129022
new line.CTR69859 bus1=BMT126911964.3,bus2=BMT135505409.3,Phases=1,LineCode=tieSwitch1,Length=0.001,Units=km,switch=T !numEQ 121776
new line.CTR81024 bus1=BMT126913287.2,bus2=BMT135536615.2,Phases=1,LineCode=tieSwitch1,Length=0.001,Units=km,switch=T !numEQ 114611
new line.CTR278620 bus1=BMT126914288.1.2.3,bus2=BMT126914302.1.2.3,Phases=3,LineCode=tieSwitch,Length=0.001,Units=km,switch=T !numEQ 191356
new line.CTR278725 bus1=BMT126914274.1.2.3,bus2=BMT149407379.1.2.3,Phases=3,LineCode=tieSwitch,Length=0.001,Units=km,switch=T !numEQ 187765
new line.CTR454978 bus1=BMT144435470.2,bus2=BMT156625255.2,Phases=1,LineCode=tieSwitch1,Length=0.001,Units=km,switch=T !numEQ 295337
new line.CTR70419 bus1=BMT126911894.3,bus2=BMT135495525.3,Phases=1,LineCode=tieSwitch1,Length=0.001,Units=km,switch=T !numEQ 123126
new line.CTR70594 bus1=BMT126911201.1.2.3,bus2=BMT126911432.1.2.3,Phases=3,LineCode=tieSwitch,Length=0.001,Units=km,switch=T !numEQ 121660
new line.CTR70601 bus1=BMT126911187.1.2.3,bus2=BMT126911446.1.2.3,Phases=3,LineCode=tieSwitch,Length=0.001,Units=km,switch=T !numEQ 121661
new line.CTR83264 bus1=BMT126911698.1.2.3,bus2=BMT150346375.1.2.3,Phases=3,LineCode=tieSwitch,Length=0.001,Units=km,switch=T !numEQ 114297
new line.CTR898597 bus1=BMT166240214.2,bus2=BMT166241002.2,Phases=1,LineCode=tieSwitch1,Length=0.001,Units=km,switch=T !numEQ 257128
new line.CTRR40277 bus1=BMT171501723.1.2.3,bus2=BMT169943082.1.2.3,Phases=3,LineCode=tieSwitch,Length=0.001,Units=km,switch=T !numEQ 268142
new line.CTR118740 bus1=BMT150190681.1.2.3,bus2=BMT2106033.1.2.3,Phases=3,LineCode=tieSwitch,Length=0.001,Units=km,switch=T !numEQ 88241
open line.CTR118740 term=1
new line.CTR118789 bus1=BMT171501743.1.2.3,bus2=BMT126911929.1.2.3,Phases=3,LineCode=tieSwitch,Length=0.001,Units=km,switch=T !numEQ 88249
new line.CTR119265 bus1=BMT126912048.3,bus2=BMT135505472.3,Phases=1,LineCode=tieSwitch1,Length=0.001,Units=km,switch=T !numEQ 88332
new line.CTR119272 bus1=BMT126911999.1,bus2=BMT163088121.1,Phases=1,LineCode=tieSwitch1,Length=0.001,Units=km,switch=T !numEQ 88333
new line.CTR119566 bus1=BMT126911992.2,bus2=BMT135503323.2,Phases=1,LineCode=tieSwitch1,Length=0.001,Units=km,switch=T !numEQ 217776
new line.CTR119587 bus1=BMT126912328.1,bus2=BMT126912384.1,Phases=1,LineCode=tieSwitch1,Length=0.001,Units=km,switch=T !numEQ 88164
new line.CTR119713 bus1=BMT163088141.1,bus2=BMT126912356.1,Phases=1,LineCode=tieSwitch1,Length=0.001,Units=km,switch=T !numEQ 88187
new line.CTR119972 bus1=BMT126913875.1.2.3,bus2=BMT169022807.1.2.3,Phases=3,LineCode=tieSwitch,Length=0.001,Units=km,switch=T !numEQ 88019
new line.CTR120014 bus1=BMT126910963.1.2.3,bus2=BMT162262920.1.2.3,Phases=3,LineCode=tieSwitch,Length=0.001,Units=km,switch=T !numEQ 88026
new line.CTR120021 bus1=BMT126913861.1.2.3,bus2=BMT171221979.1.2.3,Phases=3,LineCode=tieSwitch,Length=0.001,Units=km,switch=T !numEQ 88027
new line.CTR120042 bus1=BMT126913931.1.2.3,bus2=BMT165796055.1.2.3,Phases=3,LineCode=tieSwitch,Length=0.001,Units=km,switch=T !numEQ 88030
new line.CTR120112 bus1=BMT126911117.1.2.3,bus2=BMT126911145.1.2.3,Phases=3,LineCode=tieSwitch,Length=0.001,Units=km,switch=T !numEQ 88041
new line.CTR120119 bus1=BMT126911019.1.2.3,bus2=BMT126913777.1.2.3,Phases=3,LineCode=tieSwitch,Length=0.001,Units=km,switch=T !numEQ 88042
new line.CTR120140 bus1=BMT126910998.1.2.3,bus2=BMT150190678.1.2.3,Phases=3,LineCode=tieSwitch,Length=0.001,Units=km,switch=T !numEQ 310274
new line.CTR120168 bus1=BMT162262935.1.2.3,bus2=BMT2604237.1.2.3,Phases=3,LineCode=tieSwitch,Length=0.001,Units=km,switch=T !numEQ 88049
open line.CTR120168 term=1
new line.CTR120189 bus1=BMT126914400.1.2.3,bus2=BMT126914407.1.2.3,Phases=3,LineCode=tieSwitch,Length=0.001,Units=km,switch=T !numEQ 88052
new line.CTR120203 bus1=BMT126911586.1.2.3,bus2=BMT126913609.1.2.3,Phases=3,LineCode=tieSwitch,Length=0.001,Units=km,switch=T !numEQ 257901
new line.CTR282435 bus1=BMT126911915.2,bus2=BMT159241832.2,Phases=1,LineCode=tieSwitch1,Length=0.001,Units=km,switch=T !numEQ 217774
new line.CTR282491 bus1=BMT126911089.1.2.3,bus2=BMT172027325.1.2.3,Phases=3,LineCode=tieSwitch,Length=0.001,Units=km,switch=T !numEQ 88394
new line.CTR282596 bus1=BMT126911663.1.2.3,bus2=BMT171501711.1.2.3,Phases=3,LineCode=tieSwitch,Length=0.001,Units=km,switch=T !numEQ 88418
new line.CTR352197 bus1=BMT126913350.2,bus2=BMT148937357.2,Phases=1,LineCode=tieSwitch1,Length=0.001,Units=km,switch=T !numEQ 284783
new line.CTR71798 bus1=BMT126911355.2,bus2=BMT126911383.2,Phases=1,LineCode=tieSwitch1,Length=0.001,Units=km,switch=T !numEQ 121663
new line.CTR71805 bus1=BMT126913574.3,bus2=BMT126913595.3,Phases=1,LineCode=tieSwitch1,Length=0.001,Units=km,switch=T !numEQ 121664
new line.CTR71812 bus1=BMT126911656.1.2.3,bus2=BMT126913546.1.2.3,Phases=3,LineCode=tieSwitch,Length=0.001,Units=km,switch=T !numEQ 121665
new line.CTR71819 bus1=BMT126911306.3,bus2=BMT126911411.3,Phases=1,LineCode=tieSwitch1,Length=0.001,Units=km,switch=T !numEQ 121666
new line.CTR71826 bus1=BMT126913966.1.2.3,bus2=BMT126914008.1.2.3,Phases=3,LineCode=tieSwitch,Length=0.001,Units=km,switch=T !numEQ 121667
new line.CTR71833 bus1=BMT126914743.1.2.3,bus2=BMT126914799.1.2.3,Phases=3,LineCode=tieSwitch,Length=0.001,Units=km,switch=T !numEQ 121668
new line.CTR71840 bus1=BMT126914757.2,bus2=BMT126914785.2,Phases=1,LineCode=tieSwitch1,Length=0.001,Units=km,switch=T !numEQ 121669
new line.CTR71854 bus1=BMT126914078.1.2.3,bus2=BMT173131731.1.2.3,Phases=3,LineCode=tieSwitch,Length=0.001,Units=km,switch=T !numEQ 121672
new line.CTR859715 bus1=BMT152712078.2,bus2=BMT161627547.2,Phases=1,LineCode=tieSwitch1,Length=0.001,Units=km,switch=T !numEQ 180109
new line.CTR904156 bus1=BMT168012879.3,bus2=BMT168012907.3,Phases=1,LineCode=tieSwitch1,Length=0.001,Units=km,switch=T !numEQ 258860
new line.CTRR6474 bus1=BMT126910977.1.2.3,bus2=BMT150190731.1.2.3,Phases=3,LineCode=tieSwitch,Length=0.001,Units=km,switch=T !numEQ 310278
new line.CTR118033 bus1=BMT126910942.1.2.3,bus2=BMT150190750.1.2.3,Phases=3,LineCode=tieSwitch,Length=0.001,Units=km,switch=T !numEQ 310275
new line.CTR118082 bus1=BMT126912468.1,bus2=BMT126912622.1,Phases=1,LineCode=tieSwitch1,Length=0.001,Units=km,switch=T !numEQ 88343
new line.CTR118089 bus1=BMT126912475.1,bus2=BMT164999043.1,Phases=1,LineCode=tieSwitch1,Length=0.001,Units=km,switch=T !numEQ 88344
new line.CTR118103 bus1=BMT126911985.1,bus2=BMT126912748.1,Phases=1,LineCode=tieSwitch1,Length=0.001,Units=km,switch=T !numEQ 217775
new line.CTR118110 bus1=BMT126912489.1,bus2=BMT126912503.1,Phases=1,LineCode=tieSwitch1,Length=0.001,Units=km,switch=T !numEQ 88347
new line.CTR118117 bus1=BMT126914106.1.2.3,bus2=BMT162628144.1.2.3,Phases=3,LineCode=tieSwitch,Length=0.001,Units=km,switch=T !numEQ 88348
new line.CTR118124 bus1=BMT126913945.1.2.3,bus2=BMT126914022.1.2.3,Phases=3,LineCode=tieSwitch,Length=0.001,Units=km,switch=T !numEQ 88349
new line.CTR118166 bus1=BMT126914211.1.2.3,bus2=BMT154030239.1.2.3,Phases=3,LineCode=tieSwitch,Length=0.001,Units=km,switch=T !numEQ 88355
new line.CTR118173 bus1=BMT126910956.1.2.3,bus2=BMT159496725.1.2.3,Phases=3,LineCode=tieSwitch,Length=0.001,Units=km,switch=T !numEQ 310276
new line.CTR118194 bus1=BMT126913189.2,bus2=BMT166240201.2,Phases=1,LineCode=tieSwitch1,Length=0.001,Units=km,switch=T !numEQ 88359
new line.CTR118201 bus1=BMT126912321.1,bus2=BMT126912454.1,Phases=1,LineCode=tieSwitch1,Length=0.001,Units=km,switch=T !numEQ 88360
new line.CTR118215 bus1=BMT126911292.2,bus2=BMT126911327.2,Phases=1,LineCode=tieSwitch1,Length=0.001,Units=km,switch=T !numEQ 88362
new line.CTR118229 bus1=BMT126914085.1.2.3,bus2=BMT170489620.1.2.3,Phases=3,LineCode=tieSwitch,Length=0.001,Units=km,switch=T !numEQ 88367
new line.CTR118243 bus1=BMT126911075.1.2.3,bus2=BMT126913735.1.2.3,Phases=3,LineCode=tieSwitch,Length=0.001,Units=km,switch=T !numEQ 88369
new line.CTR118271 bus1=BMT126911859.2,bus2=BMT164449481.2,Phases=1,LineCode=tieSwitch1,Length=0.001,Units=km,switch=T !numEQ 232730
new line.CTR118285 bus1=BMT126914232.1.2.3,bus2=BMT150188551.1.2.3,Phases=3,LineCode=tieSwitch,Length=0.001,Units=km,switch=T !numEQ 88375
new line.CTR118334 bus1=BMT126911040.1.2.3,bus2=BMT126911047.1.2.3,Phases=3,LineCode=tieSwitch,Length=0.001,Units=km,switch=T !numEQ 88388
new line.CTR118418 bus1=BMT126912097.3,bus2=BMT169728042.3,Phases=1,LineCode=tieSwitch1,Length=0.001,Units=km,switch=T !numEQ 88406
new line.CTR118425 bus1=BMT126912874.2,bus2=BMT135534354.2,Phases=1,LineCode=tieSwitch1,Length=0.001,Units=km,switch=T !numEQ 88407
new line.CTR118432 bus1=BMT126912839.2,bus2=BMT135534291.2,Phases=1,LineCode=tieSwitch1,Length=0.001,Units=km,switch=T !numEQ 88408
new line.CTR118439 bus1=BMT126912867.2,bus2=BMT135534445.2,Phases=1,LineCode=tieSwitch1,Length=0.001,Units=km,switch=T !numEQ 88409
new line.CTR118495 bus1=BMT126911180.1.2.3,bus2=BMT164401541.1.2.3,Phases=3,LineCode=tieSwitch,Length=0.001,Units=km,switch=T !numEQ 88428
new line.CTR118537 bus1=BMT126912811.2,bus2=BMT135534263.2,Phases=1,LineCode=tieSwitch1,Length=0.001,Units=km,switch=T !numEQ 88438
new line.CTR422148 bus1=BMT135436158.2,bus2=BMT135503743.2,Phases=1,LineCode=tieSwitch1,Length=0.001,Units=km,switch=T !numEQ 217749
new line.CTR886366 bus1=BMT161496678.1,bus2=BMT161497296.1,Phases=1,LineCode=tieSwitch1,Length=0.001,Units=km,switch=T !numEQ 236433
new line.CTRR41911 bus1=BMT126914113.1.2.3,bus2=BMT126914190.1.2.3,Phases=3,LineCode=tieSwitch,Length=0.001,Units=km,switch=T !numEQ 267987
new line.CTR11423 bus1=BMT126912902.2,bus2=BMT152712077.2,Phases=1,LineCode=tieSwitch1,Length=0.001,Units=km,switch=T !numEQ 187739
new line.CTR32346 bus1=BMT126912825.2,bus2=BMT135534536.2,Phases=1,LineCode=tieSwitch1,Length=0.001,Units=km,switch=T !numEQ 176540
new line.CTR327858 bus1=BMT126911747.1.2.3,bus2=BMT170557061.1.2.3,Phases=3,LineCode=tieSwitch,Length=0.001,Units=km,switch=T !numEQ 218014
new line.CTR438213 bus1=BMT140195633.1.2.3,bus2=BMT165393600.1.2.3,Phases=3,LineCode=tieSwitch,Length=0.001,Units=km,switch=T !numEQ 290566
new line.CTR845121 bus1=BMT148468488.1.2.3,bus2=BMT162756567.1.2.3,Phases=3,LineCode=tieSwitch,Length=0.001,Units=km,switch=T !numEQ 317390
new line.CTR846717 bus1=BMT148937358.2,bus2=BMT148938059.2,Phases=1,LineCode=tieSwitch1,Length=0.001,Units=km,switch=T !numEQ 295687
new line.CTR872966 bus1=BMT156625256.2,bus2=BMT156625258.2,Phases=1,LineCode=tieSwitch1,Length=0.001,Units=km,switch=T !numEQ 232729
new line.CTR915997 bus1=BMT172026520.1.2.3,bus2=BMT172027281.1.2.3,Phases=3,LineCode=tieSwitch,Length=0.001,Units=km,switch=T !numEQ 257899
new line.CTRR42479 bus1=BMT171501656.1.2.3,bus2=BMT171501730.1.2.3,Phases=3,LineCode=tieSwitch,Length=0.001,Units=km,switch=T !numEQ 129096
