2024_89_CemigReconfigurationCases/1_AlimsCemig/VZPU08/VZPU08Transformadores.dss
new transformer.1009056 Phases=1,Windings=3,Buses=[BMT171501716.1 BBT86015843.1.0 BBT86015843.0.2],Conns=[wye wye wye],kvs=[7.967 0.12 0.12],kvas=[5.000000000 5.000000000 5.000000000],Taps=[1,1.000000000,1.000000000],XHL=1.628000000,XHT=1.628000000,XLT=1.085000000,%loadloss=1.900000000,%noloadloss=0.600000000
new transformer.1024442 Phases=1,Windings=3,Buses=[BMT144435477.2 BBT93560912.1.0 BBT93560912.0.2],Conns=[wye wye wye],kvs=[7.967 0.12 0.12],kvas=[15.000000000 15.000000000 15.000000000],Taps=[1,1.000000000,1.000000000],XHL=2.123000000,XHT=2.123000000,XLT=1.415000000,%loadloss=1.600000000,%noloadloss=0.400000000
new transformer.1041515 Phases=1,Windings=3,Buses=[BMT164211401.2 BBT106251660.1.0 BBT106251660.0.2],Conns=[wye wye wye],kvs=[7.967 0.12 0.12],kvas=[15.000000000 15.000000000 15.000000000],Taps=[1,1.000000000,1.000000000],XHL=2.123000000,XHT=2.123000000,XLT=1.415000000,%loadloss=1.600000000,%noloadloss=0.400000000
new transformer.1115057 Phases=3,Windings=2,Buses=[BMT171221983.1.2.3 BBT145530494.1.2.3.0],Conns=[delta wye],kvs=[13.8 0.22],kvas=[75.000000000 75.000000000],Taps=[1,1.000000000],XHL=3.721000000,%loadloss=1.340000000,%noloadloss=0.340000000
new transformer.1395905 Phases=1,Windings=3,Buses=[BMT149402573.1 BBT149402175.1.0 BBT149402175.0.2],Conns=[wye wye wye],kvs=[7.967 0.12 0.12],kvas=[10.000000000 10.000000000 10.000000000],Taps=[1,1.000000000,1.000000000],XHL=1.877000000,XHT=1.877000000,XLT=1.252000000,%loadloss=1.800000000,%noloadloss=0.450000000
new transformer.1449376 Phases=1,Windings=3,Buses=[BMT161497298.1 BBT161495558.1.0 BBT161495558.0.2],Conns=[wye wye wye],kvs=[7.967 0.12 0.12],kvas=[15.000000000 15.000000000 15.000000000],Taps=[1,1.000000000,1.000000000],XHL=2.123000000,XHT=2.123000000,XLT=1.415000000,%loadloss=1.600000000,%noloadloss=0.400000000
new transformer.1455061 Phases=1,Windings=3,Buses=[BMT163088138.1 BBT163088151.1.0 BBT163088151.0.2],Conns=[wye wye wye],kvs=[7.967 0.12 0.12],kvas=[15.000000000 15.000000000 15.000000000],Taps=[1,1.000000000,1.000000000],XHL=2.123000000,XHT=2.123000000,XLT=1.415000000,%loadloss=1.600000000,%noloadloss=0.400000000
new transformer.1465752 Phases=3,Windings=2,Buses=[BMT165796060.1.2.3 BBT165533613.1.2.3.0],Conns=[delta wye],kvs=[13.8 0.22],kvas=[45.000000000 45.000000000],Taps=[1,1.000000000],XHL=3.636000000,%loadloss=1.522000000,%noloadloss=0.377777000
new transformer.1493081 Phases=3,Windings=2,Buses=[BMT171501729.1.2.3 BBT170589238.1.2.3.0],Conns=[delta wye],kvs=[13.8 0.22],kvas=[45.000000000 45.000000000],Taps=[1,1.000000000],XHL=3.636000000,%loadloss=1.522000000,%noloadloss=0.377777000
new transformer.303771 Phases=3,Windings=2,Buses=[BMT150886749.1.2.3 BBT1318484.1.2.3.0],Conns=[delta wye],kvs=[13.8 0.22],kvas=[75.000000000 75.000000000],Taps=[1,1.000000000],XHL=3.721000000,%loadloss=1.340000000,%noloadloss=0.340000000
new transformer.303778 Phases=3,Windings=2,Buses=[BMT172027327.1.2.3 BBT1318561.1.2.3.0],Conns=[delta wye],kvs=[13.8 0.22],kvas=[45.000000000 45.000000000],Taps=[1,1.000000000],XHL=3.636000000,%loadloss=1.522000000,%noloadloss=0.377777000
new transformer.303785 Phases=3,Windings=2,Buses=[BMT126913553.1.2.3 BBT1318645.1.2.3.0],Conns=[delta wye],kvs=[13.8 0.22],kvas=[45.000000000 45.000000000],Taps=[1,1.000000000],XHL=3.636000000,%loadloss=1.522000000,%noloadloss=0.377777000
new transformer.303792 Phases=3,Windings=2,Buses=[BMT126911096.1.2.3 BBT1318750.1.2.3.0],Conns=[delta wye],kvs=[13.8 0.22],kvas=[45.000000000 45.000000000],Taps=[1,1.000000000],XHL=3.636000000,%loadloss=1.522000000,%noloadloss=0.377777000
new transformer.303799 Phases=1,Windings=3,Buses=[BMT152264318.2 BBT1318925.1.0 BBT1318925.0.2],Conns=[wye wye wye],kvs=[7.967 0.12 0.12],kvas=[15.000000000 15.000000000 15.000000000],Taps=[1,1.000000000,1.000000000],XHL=2.123000000,XHT=2.123000000,XLT=1.415000000,%loadloss=1.600000000,%noloadloss=0.400000000
new transformer.303813 Phases=1,Windings=3,Buses=[BMT150874629.3 BBT1319177.1.0 BBT1319177.0.2],Conns=[wye wye wye],kvs=[7.967 0.12 0.12],kvas=[25.000000000 25.000000000 25.000000000],Taps=[1,1.000000000,1.000000000],XHL=2.344000000,XHT=2.344000000,XLT=1.563000000,%loadloss=1.420000000,%noloadloss=0.320000000
new transformer.303827 Phases=3,Windings=2,Buses=[BMT126911453.1.2.3 BBT1319415.1.2.3.0],Conns=[delta wye],kvs=[13.8 0.22],kvas=[75.000000000 75.000000000],Taps=[1,1.000000000],XHL=3.721000000,%loadloss=1.340000000,%noloadloss=0.340000000
new transformer.303848 Phases=1,Windings=3,Buses=[BMT172026850.2 BBT1319695.1.0 BBT1319695.0.2],Conns=[wye wye wye],kvs=[7.967 0.12 0.12],kvas=[25.000000000 25.000000000 25.000000000],Taps=[1,1.000000000,1.000000000],XHL=2.344000000,XHT=2.344000000,XLT=1.563000000,%loadloss=1.420000000,%noloadloss=0.320000000
new transformer.303862 Phases=3,Windings=2,Buses=[BMT126913819.1.2.3 BBT1319912.1.2.3.0],Conns=[delta wye],kvs=[13.8 0.22],kvas=[45.000000000 45.000000000],Taps=[1,1.000000000],XHL=3.636000000,%loadloss=1.522000000,%noloadloss=0.377777000
new transformer.303876 Phases=3,Windings=2,Buses=[BMT126911082.1.2.3 BBT1320157.1.2.3.0],Conns=[delta wye],kvs=[13.8 0.22],kvas=[75.000000000 75.000000000],Taps=[1,1.000000000],XHL=3.721000000,%loadloss=1.340000000,%noloadloss=0.340000000
new transformer.303883 Phases=3,Windings=2,Buses=[BMT126911166.1.2.3 BBT1320339.1.2.3.0],Conns=[delta wye],kvs=[13.8 0.22],kvas=[75.000000000 75.000000000],Taps=[1,1.000000000],XHL=3.721000000,%loadloss=1.340000000,%noloadloss=0.340000000
new transformer.303890 Phases=3,Windings=2,Buses=[BMT126913791.1.2.3 BBT1320577.1.2.3.0],Conns=[delta wye],kvs=[13.8 0.22],kvas=[75.000000000 75.000000000],Taps=[1,1.000000000],XHL=3.721000000,%loadloss=1.340000000,%noloadloss=0.340000000
new transformer.303911 Phases=1,Windings=3,Buses=[BMT150874633.3 BBT1320976.1.0 BBT1320976.0.2],Conns=[wye wye wye],kvs=[7.967 0.12 0.12],kvas=[35.000000000 35.000000000 35.000000000],Taps=[1,1.000000000,1.000000000],XHL=2.475000000,XHT=2.475000000,XLT=1.650000000,%loadloss=1.293000000,%noloadloss=0.342857000
new transformer.303918 Phases=3,Windings=2,Buses=[BMT126913630.1.2.3 BBT1321081.1.2.3.0],Conns=[delta wye],kvs=[13.8 0.22],kvas=[45.000000000 45.000000000],Taps=[1,1.000000000],XHL=3.636000000,%loadloss=1.522000000,%noloadloss=0.377777000
new transformer.303925 Phases=3,Windings=2,Buses=[BMT172026859.1.2.3 BBT1321235.1.2.3.0],Conns=[delta wye],kvs=[13.8 0.22],kvas=[150.000000000 150.000000000],Taps=[1,1.000000000],XHL=3.805000000,%loadloss=1.127000000,%noloadloss=0.280000000
new transformer.303932 Phases=1,Windings=3,Buses=[BMT126913616.2 BBT1321249.1.0 BBT1321249.0.2],Conns=[wye wye wye],kvs=[7.967 0.12 0.12],kvas=[25.000000000 25.000000000 25.000000000],Taps=[1,1.000000000,1.000000000],XHL=2.344000000,XHT=2.344000000,XLT=1.563000000,%loadloss=1.420000000,%noloadloss=0.320000000
new transformer.303939 Phases=3,Windings=2,Buses=[BMT164401542.1.2.3 BBT1321340.1.2.3.0],Conns=[delta wye],kvs=[13.8 0.22],kvas=[45.000000000 45.000000000],Taps=[1,1.000000000],XHL=3.636000000,%loadloss=1.522000000,%noloadloss=0.377777000
new transformer.303946 Phases=3,Windings=2,Buses=[BMT126911068.1.2.3 BBT1321459.1.2.3.0],Conns=[delta wye],kvs=[13.8 0.22],kvas=[75.000000000 75.000000000],Taps=[1,1.000000000],XHL=3.721000000,%loadloss=1.340000000,%noloadloss=0.340000000
new transformer.303974 Phases=3,Windings=2,Buses=[BMT150190680.1.2.3 BBT1321914.1.2.3.0],Conns=[delta wye],kvs=[13.8 0.22],kvas=[100.000000000 100.000000000],Taps=[1,1.000000000],XHL=3.771000000,%loadloss=1.218000000,%noloadloss=0.335000000
new transformer.304009 Phases=1,Windings=3,Buses=[BMT171184387.2 BBT1322411.1.0 BBT1322411.0.2],Conns=[wye wye wye],kvs=[7.967 0.12 0.12],kvas=[35.000000000 35.000000000 35.000000000],Taps=[1,1.000000000,1.000000000],XHL=2.475000000,XHT=2.475000000,XLT=1.650000000,%loadloss=1.293000000,%noloadloss=0.342857000
new transformer.304058 Phases=3,Windings=2,Buses=[BMT126914806.1.2.3 BBT1323237.1.2.3.0],Conns=[delta wye],kvs=[13.8 0.22],kvas=[75.000000000 75.000000000],Taps=[1,1.000000000],XHL=3.721000000,%loadloss=1.340000000,%noloadloss=0.340000000
new transformer.1398323 Phases=3,Windings=2,Buses=[BMT154030244.1.2.3 BBT149921380.1.2.3.0],Conns=[delta wye],kvs=[13.8 0.22],kvas=[30.000000000 30.000000000],Taps=[1,1.000000000],XHL=3.564000000,%loadloss=1.667000000,%noloadloss=0.433333000
new transformer.1427223 Phases=1,Windings=3,Buses=[BMT156625259.2 BBT156624871.1.0 BBT156624871.0.2],Conns=[wye wye wye],kvs=[7.967 0.12 0.12],kvas=[15.000000000 15.000000000 15.000000000],Taps=[1,1.000000000,1.000000000],XHL=2.123000000,XHT=2.123000000,XLT=1.415000000,%loadloss=1.600000000,%noloadloss=0.400000000
new transformer.1477395 Phases=1,Windings=3,Buses=[BMT171501722.3 BBT167667006.1.0 BBT167667006.0.2],Conns=[wye wye wye],kvs=[7.967 0.12 0.12],kvas=[10.000000000 10.000000000 10.000000000],Taps=[1,1.000000000,1.000000000],XHL=1.877000000,XHT=1.877000000,XLT=1.252000000,%loadloss=1.800000000,%noloadloss=0.450000000
new transformer.1488984 Phases=1,Windings=3,Buses=[BMT169728050.3 BBT169728053.1.0 BBT169728053.0.2],Conns=[wye wye wye],kvs=[7.967 0.12 0.12],kvas=[10.000000000 10.000000000 10.000000000],Taps=[1,1.000000000,1.000000000],XHL=1.877000000,XHT=1.877000000,XLT=1.252000000,%loadloss=1.800000000,%noloadloss=0.450000000
new transformer.303078 Phases=1,Windings=3,Buses=[BMT126911334.2 BBT1308089.1.0 BBT1308089.0.2],Conns=[wye wye wye],kvs=[7.967 0.12 0.12],kvas=[25.000000000 25.000000000 25.000000000],Taps=[1,1.000000000,1.000000000],XHL=2.344000000,XHT=2.344000000,XLT=1.563000000,%loadloss=1.420000000,%noloadloss=0.320000000
new transformer.303295 Phases=3,Windings=2,Buses=[BMT158555354.1.2.3 BBT1311442.1.2.3.0],Conns=[delta wye],kvs=[13.8 0.22],kvas=[100.000000000 100.000000000],Taps=[1,1.000000000],XHL=3.771000000,%loadloss=1.218000000,%noloadloss=0.335000000
new transformer.303323 Phases=3,Windings=2,Buses=[BMT169022808.1.2.3 BBT1311890.1.2.3.0],Conns=[delta wye],kvs=[13.8 0.22],kvas=[75.000000000 75.000000000],Taps=[1,1.000000000],XHL=3.721000000,%loadloss=1.340000000,%noloadloss=0.340000000
new transformer.303330 Phases=3,Windings=2,Buses=[BMT126914015.1.2.3 BBT1312009.1.2.3.0],Conns=[delta wye],kvs=[13.8 0.22],kvas=[30.000000000 30.000000000],Taps=[1,1.000000000],XHL=3.564000000,%loadloss=1.667000000,%noloadloss=0.433333000
new transformer.303344 Phases=3,Windings=2,Buses=[BMT162262930.1.2.3 BBT1312163.1.2.3.0],Conns=[delta wye],kvs=[13.8 0.22],kvas=[45.000000000 45.000000000],Taps=[1,1.000000000],XHL=3.636000000,%loadloss=1.522000000,%noloadloss=0.377777000
new transformer.303351 Phases=3,Windings=2,Buses=[BMT171221985.1.2.3 BBT1312261.1.2.3.0],Conns=[delta wye],kvs=[13.8 0.22],kvas=[100.000000000 100.000000000],Taps=[1,1.000000000],XHL=3.771000000,%loadloss=1.218000000,%noloadloss=0.335000000
new transformer.303365 Phases=1,Windings=3,Buses=[BMT152264320.3 BBT1312464.1.0 BBT1312464.0.2],Conns=[wye wye wye],kvs=[7.967 0.12 0.12],kvas=[35.000000000 35.000000000 35.000000000],Taps=[1,1.000000000,1.000000000],XHL=2.475000000,XHT=2.475000000,XLT=1.650000000,%loadloss=1.293000000,%noloadloss=0.342857000
new transformer.303379 Phases=3,Windings=2,Buses=[BMT162262928.1.2.3 BBT1312583.1.2.3.0],Conns=[delta wye],kvs=[13.8 0.22],kvas=[100.000000000 100.000000000],Taps=[1,1.000000000],XHL=3.771000000,%loadloss=1.218000000,%noloadloss=0.335000000
new transformer.303393 Phases=3,Windings=2,Buses=[BMT158555357.1.2.3 BBT1312744.1.2.3.0],Conns=[delta wye],kvs=[13.8 0.22],kvas=[45.000000000 45.000000000],Taps=[1,1.000000000],XHL=3.636000000,%loadloss=1.522000000,%noloadloss=0.377777000
new transformer.303414 Phases=3,Windings=2,Buses=[BMT159496727.1.2.3 BBT1313052.1.2.3.0],Conns=[delta wye],kvs=[13.8 0.22],kvas=[45.000000000 45.000000000],Taps=[1,1.000000000],XHL=3.636000000,%loadloss=1.522000000,%noloadloss=0.377777000
new transformer.303421 Phases=3,Windings=2,Buses=[BMT165796056.1.2.3 BBT1313129.1.2.3.0],Conns=[delta wye],kvs=[13.8 0.22],kvas=[75.000000000 75.000000000],Taps=[1,1.000000000],XHL=3.721000000,%loadloss=1.340000000,%noloadloss=0.340000000
new transformer.303526 Phases=3,Windings=2,Buses=[BMT150190732.1.2.3 BBT1314774.1.2.3.0],Conns=[delta wye],kvs=[13.8 0.22],kvas=[100.000000000 100.000000000],Taps=[1,1.000000000],XHL=3.771000000,%loadloss=1.218000000,%noloadloss=0.335000000
new transformer.303547 Phases=1,Windings=3,Buses=[BMT126911362.2 BBT1314998.1.0 BBT1314998.0.2],Conns=[wye wye wye],kvs=[7.967 0.12 0.12],kvas=[35.000000000 35.000000000 35.000000000],Taps=[1,1.000000000,1.000000000],XHL=2.475000000,XHT=2.475000000,XLT=1.650000000,%loadloss=1.293000000,%noloadloss=0.342857000
new transformer.303561 Phases=3,Windings=2,Buses=[BMT162628149.1.2.3 BBT1315229.1.2.3.0],Conns=[delta wye],kvs=[13.8 0.22],kvas=[30.000000000 30.000000000],Taps=[1,1.000000000],XHL=3.564000000,%loadloss=1.667000000,%noloadloss=0.433333000
new transformer.303575 Phases=3,Windings=2,Buses=[BMT159496729.1.2.3 BBT1315439.1.2.3.0],Conns=[delta wye],kvs=[13.8 0.22],kvas=[45.000000000 45.000000000],Taps=[1,1.000000000],XHL=3.636000000,%loadloss=1.522000000,%noloadloss=0.377777000
new transformer.303603 Phases=1,Windings=3,Buses=[BMT126911418.3 BBT1315782.1.0 BBT1315782.0.2],Conns=[wye wye wye],kvs=[7.967 0.12 0.12],kvas=[15.000000000 15.000000000 15.000000000],Taps=[1,1.000000000,1.000000000],XHL=2.123000000,XHT=2.123000000,XLT=1.415000000,%loadloss=1.600000000,%noloadloss=0.400000000
new transformer.303610 Phases=1,Windings=3,Buses=[BMT152264323.1 BBT1315852.1.0 BBT1315852.0.2],Conns=[wye wye wye],kvs=[7.967 0.12 0.12],kvas=[35.000000000 35.000000000 35.000000000],Taps=[1,1.000000000,1.000000000],XHL=2.475000000,XHT=2.475000000,XLT=1.650000000,%loadloss=1.293000000,%noloadloss=0.342857000
new transformer.303624 Phases=1,Windings=3,Buses=[BMT172026860.3 BBT1316055.1.0 BBT1316055.0.2],Conns=[wye wye wye],kvs=[7.967 0.12 0.12],kvas=[15.000000000 15.000000000 15.000000000],Taps=[1,1.000000000,1.000000000],XHL=2.123000000,XHT=2.123000000,XLT=1.415000000,%loadloss=1.600000000,%noloadloss=0.400000000
new transformer.303631 Phases=3,Windings=2,Buses=[BMT126911467.1.2.3 BBT1316139.1.2.3.0],Conns=[delta wye],kvs=[13.8 0.22],kvas=[100.000000000 100.000000000],Taps=[1,1.000000000],XHL=3.771000000,%loadloss=1.218000000,%noloadloss=0.335000000
new transformer.303638 Phases=3,Windings=2,Buses=[BMT126913805.1.2.3 BBT1316237.1.2.3.0],Conns=[delta wye],kvs=[13.8 0.22],kvas=[45.000000000 45.000000000],Taps=[1,1.000000000],XHL=3.636000000,%loadloss=1.522000000,%noloadloss=0.377777000
new transformer.303652 Phases=1,Windings=3,Buses=[BMT165796057.1 BBT1316440.1.0 BBT1316440.0.2],Conns=[wye wye wye],kvs=[7.967 0.12 0.12],kvas=[35.000000000 35.000000000 35.000000000],Taps=[1,1.000000000,1.000000000],XHL=2.475000000,XHT=2.475000000,XLT=1.650000000,%loadloss=1.293000000,%noloadloss=0.342857000
new transformer.303659 Phases=3,Windings=2,Buses=[BMT162628152.1.2.3 BBT1316482.1.2.3.0],Conns=[delta wye],kvs=[13.8 0.22],kvas=[75.000000000 75.000000000],Taps=[1,1.000000000],XHL=3.721000000,%loadloss=1.340000000,%noloadloss=0.340000000
new transformer.303666 Phases=3,Windings=2,Buses=[BMT162628147.1.2.3 BBT1316566.1.2.3.0],Conns=[delta wye],kvs=[13.8 0.22],kvas=[45.000000000 45.000000000],Taps=[1,1.000000000],XHL=3.636000000,%loadloss=1.522000000,%noloadloss=0.377777000
new transformer.303680 Phases=3,Windings=2,Buses=[BMT162628145.1.2.3 BBT1316797.1.2.3.0],Conns=[delta wye],kvs=[13.8 0.22],kvas=[45.000000000 45.000000000],Taps=[1,1.000000000],XHL=3.636000000,%loadloss=1.522000000,%noloadloss=0.377777000
new transformer.303687 Phases=3,Windings=2,Buses=[BMT165796059.1.2.3 BBT1316916.1.2.3.0],Conns=[delta wye],kvs=[13.8 0.22],kvas=[75.000000000 75.000000000],Taps=[1,1.000000000],XHL=3.721000000,%loadloss=1.340000000,%noloadloss=0.340000000
new transformer.303694 Phases=3,Windings=2,Buses=[BMT150886753.1.2.3 BBT1317056.1.2.3.0],Conns=[delta wye],kvs=[13.8 0.22],kvas=[45.000000000 45.000000000],Taps=[1,1.000000000],XHL=3.636000000,%loadloss=1.522000000,%noloadloss=0.377777000
new transformer.303715 Phases=3,Windings=2,Buses=[BMT126913812.1.2.3 BBT1317476.1.2.3.0],Conns=[delta wye],kvs=[13.8 0.22],kvas=[75.000000000 75.000000000],Taps=[1,1.000000000],XHL=3.721000000,%loadloss=1.340000000,%noloadloss=0.340000000
new transformer.1007782 Phases=1,Windings=3,Buses=[BMT126912440.1 BBT85403749.1.0 BBT85403749.0.2],Conns=[wye wye wye],kvs=[7.967 0.12 0.12],kvas=[5.000000000 5.000000000 5.000000000],Taps=[1,1.000000000,1.000000000],XHL=1.628000000,XHT=1.628000000,XLT=1.085000000,%loadloss=1.900000000,%noloadloss=0.600000000
new transformer.1118963 Phases=1,Windings=3,Buses=[BMT164211404.2 BBT146545718.1.0 BBT146545718.0.2],Conns=[wye wye wye],kvs=[7.967 0.12 0.12],kvas=[15.000000000 15.000000000 15.000000000],Taps=[1,1.000000000,1.000000000],XHL=2.123000000,XHT=2.123000000,XLT=1.415000000,%loadloss=1.600000000,%noloadloss=0.400000000
new transformer.1397646 Phases=1,Windings=3,Buses=[BMT160446729.1 BBT149811585.1.0 BBT149811585.0.2],Conns=[wye wye wye],kvs=[7.967 0.12 0.12],kvas=[15.000000000 15.000000000 15.000000000],Taps=[1,1.000000000,1.000000000],XHL=2.123000000,XHT=2.123000000,XLT=1.415000000,%loadloss=1.600000000,%noloadloss=0.400000000
new transformer.1397654 Phases=1,Windings=3,Buses=[BMT149813717.1 BBT149813007.1.0 BBT149813007.0.2],Conns=[wye wye wye],kvs=[7.967 0.12 0.12],kvas=[15.000000000 15.000000000 15.000000000],Taps=[1,1.000000000,1.000000000],XHL=2.123000000,XHT=2.123000000,XLT=1.415000000,%loadloss=1.600000000,%noloadloss=0.400000000
new transformer.1479349 Phases=1,Windings=3,Buses=[BMT168012910.3 BBT168012080.1.0 BBT168012080.0.2],Conns=[wye wye wye],kvs=[7.967 0.12 0.12],kvas=[10.000000000 10.000000000 10.000000000],Taps=[1,1.000000000,1.000000000],XHL=1.877000000,XHT=1.877000000,XLT=1.252000000,%loadloss=1.800000000,%noloadloss=0.450000000
new transformer.299466 Phases=1,Windings=3,Buses=[BMT169728048.3 BBT1258494.1.0 BBT1258494.0.2],Conns=[wye wye wye],kvs=[7.967 0.12 0.12],kvas=[5.000000000 5.000000000 5.000000000],Taps=[1,1.000000000,1.000000000],XHL=1.628000000,XHT=1.628000000,XLT=1.085000000,%loadloss=1.900000000,%noloadloss=0.600000000
new transformer.299487 Phases=1,Windings=3,Buses=[BMT169728051.3 BBT1258536.1.0 BBT1258536.0.2],Conns=[wye wye wye],kvs=[7.967 0.12 0.12],kvas=[5.000000000 5.000000000 5.000000000],Taps=[1,1.000000000,1.000000000],XHL=1.628000000,XHT=1.628000000,XLT=1.085000000,%loadloss=1.900000000,%noloadloss=0.600000000
new transformer.299515 Phases=1,Windings=3,Buses=[BMT169728052.3 BBT1258620.1.0 BBT1258620.0.2],Conns=[wye wye wye],kvs=[7.967 0.12 0.12],kvas=[5.000000000 5.000000000 5.000000000],Taps=[1,1.000000000,1.000000000],XHL=1.628000000,XHT=1.628000000,XLT=1.085000000,%loadloss=1.900000000,%noloadloss=0.600000000
new transformer.304429 Phases=3,Windings=2,Buses=[BMT149407381.1.2.3 BBT1329096.1.2.3.0],Conns=[delta wye],kvs=[13.8 0.22],kvas=[45.000000000 45.000000000],Taps=[1,1.000000000],XHL=3.636000000,%loadloss=1.522000000,%noloadloss=0.377777000
new transformer.304464 Phases=3,Windings=2,Buses=[BMT171184386.1.2.3 BBT1329740.1.2.3.0],Conns=[delta wye],kvs=[13.8 0.22],kvas=[45.000000000 45.000000000],Taps=[1,1.000000000],XHL=3.636000000,%loadloss=1.522000000,%noloadloss=0.377777000
new transformer.304471 Phases=3,Windings=2,Buses=[BMT161623349.1.2.3 BBT1329789.1.2.3.0],Conns=[delta wye],kvs=[13.8 0.22],kvas=[75.000000000 75.000000000],Taps=[1,1.000000000],XHL=3.721000000,%loadloss=1.340000000,%noloadloss=0.340000000
new transformer.304478 Phases=1,Windings=3,Buses=[BMT126914547.1 BBT1329978.1.0 BBT1329978.0.2],Conns=[wye wye wye],kvs=[7.967 0.12 0.12],kvas=[5.000000000 5.000000000 5.000000000],Taps=[1,1.000000000,1.000000000],XHL=1.628000000,XHT=1.628000000,XLT=1.085000000,%loadloss=1.900000000,%noloadloss=0.600000000
new transformer.304485 Phases=3,Windings=2,Buses=[BMT126914218.1.2.3 BBT1329992.1.2.3.0],Conns=[delta wye],kvs=[13.8 0.22],kvas=[150.000000000 150.000000000],Taps=[1,1.000000000],XHL=3.805000000,%loadloss=1.127000000,%noloadloss=0.280000000
new transformer.304499 Phases=3,Windings=2,Buses=[BMT148509630.1.2.3 BBT1330426.1.2.3.0],Conns=[delta wye],kvs=[13.8 0.22],kvas=[100.000000000 100.000000000],Taps=[1,1.000000000],XHL=3.771000000,%loadloss=1.218000000,%noloadloss=0.335000000
new transformer.304513 Phases=3,Windings=2,Buses=[BMT161623350.1.2.3 BBT1330650.1.2.3.0],Conns=[delta wye],kvs=[13.8 0.22],kvas=[75.000000000 75.000000000],Taps=[1,1.000000000],XHL=3.721000000,%loadloss=1.340000000,%noloadloss=0.340000000
new transformer.304527 Phases=3,Windings=2,Buses=[BMT150188553.1.2.3 BBT1330916.1.2.3.0],Conns=[delta wye],kvs=[13.8 0.22],kvas=[45.000000000 45.000000000],Taps=[1,1.000000000],XHL=3.636000000,%loadloss=1.522000000,%noloadloss=0.377777000
new transformer.304541 Phases=3,Windings=2,Buses=[BMT126914414.1.2.3 BBT1331140.1.2.3.0],Conns=[delta wye],kvs=[13.8 0.22],kvas=[75.000000000 75.000000000],Taps=[1,1.000000000],XHL=3.721000000,%loadloss=1.340000000,%noloadloss=0.340000000
new transformer.304555 Phases=3,Windings=2,Buses=[BMT150188554.1.2.3 BBT1331378.1.2.3.0],Conns=[delta wye],kvs=[13.8 0.22],kvas=[45.000000000 45.000000000],Taps=[1,1.000000000],XHL=3.636000000,%loadloss=1.522000000,%noloadloss=0.377777000
new transformer.304569 Phases=3,Windings=2,Buses=[BMT161623352.1.2.3 BBT1331525.1.2.3.0],Conns=[delta wye],kvs=[13.8 0.22],kvas=[75.000000000 75.000000000],Taps=[1,1.000000000],XHL=3.721000000,%loadloss=1.340000000,%noloadloss=0.340000000
new transformer.304583 Phases=3,Windings=2,Buses=[BMT161623357.1.2.3 BBT1331679.1.2.3.0],Conns=[delta wye],kvs=[13.8 0.22],kvas=[45.000000000 45.000000000],Taps=[1,1.000000000],XHL=3.636000000,%loadloss=1.522000000,%noloadloss=0.377777000
new transformer.304597 Phases=3,Windings=2,Buses=[BMT161623354.1.2.3 BBT1331826.1.2.3.0],Conns=[delta wye],kvs=[13.8 0.22],kvas=[45.000000000 45.000000000],Taps=[1,1.000000000],XHL=3.636000000,%loadloss=1.522000000,%noloadloss=0.377777000
new transformer.304611 Phases=3,Windings=2,Buses=[BMT161623355.1.2.3 BBT1331945.1.2.3.0],Conns=[delta wye],kvs=[13.8 0.22],kvas=[45.000000000 45.000000000],Taps=[1,1.000000000],XHL=3.636000000,%loadloss=1.522000000,%noloadloss=0.377777000
new transformer.304625 Phases=3,Windings=2,Buses=[BMT150188557.1.2.3 BBT1331973.1.2.3.0],Conns=[delta wye],kvs=[13.8 0.22],kvas=[30.000000000 30.000000000],Taps=[1,1.000000000],XHL=3.564000000,%loadloss=1.667000000,%noloadloss=0.433333000
new transformer.304639 Phases=3,Windings=2,Buses=[BMT171184382.1.2.3 BBT1332050.1.2.3.0],Conns=[delta wye],kvs=[13.8 0.22],kvas=[15.000000000 15.000000000],Taps=[1,1.000000000],XHL=3.362000000,%loadloss=1.967000000,%noloadloss=0.500000000
new transformer.304653 Phases=3,Windings=2,Buses=[BMT171184383.1.2.3 BBT1332246.1.2.3.0],Conns=[delta wye],kvs=[13.8 0.22],kvas=[100.000000000 100.000000000],Taps=[1,1.000000000],XHL=3.771000000,%loadloss=1.218000000,%noloadloss=0.335000000
new transformer.311583 Phases=1,Windings=3,Buses=[BMT126912510.1 BBT1389429.1.0 BBT1389429.0.2],Conns=[wye wye wye],kvs=[7.967 0.12 0.12],kvas=[10.000000000 10.000000000 10.000000000],Taps=[1,1.000000000,1.000000000],XHL=1.877000000,XHT=1.877000000,XLT=1.252000000,%loadloss=1.800000000,%noloadloss=0.450000000
new transformer.311674 Phases=1,Windings=3,Buses=[BMT164999052.1 BBT1389611.1.0 BBT1389611.0.2],Conns=[wye wye wye],kvs=[7.967 0.12 0.12],kvas=[10.000000000 10.000000000 10.000000000],Taps=[1,1.000000000,1.000000000],XHL=1.877000000,XHT=1.877000000,XLT=1.252000000,%loadloss=1.800000000,%noloadloss=0.450000000
new transformer.311702 Phases=1,Windings=3,Buses=[BMT164999048.1 BBT1389667.1.0 BBT1389667.0.2],Conns=[wye wye wye],kvs=[7.967 0.12 0.12],kvas=[10.000000000 10.000000000 10.000000000],Taps=[1,1.000000000,1.000000000],XHL=1.877000000,XHT=1.877000000,XLT=1.252000000,%loadloss=1.800000000,%noloadloss=0.450000000
new transformer.317085 Phases=1,Windings=3,Buses=[BMT164177552.2 BBT1409253.1.0 BBT1409253.0.2],Conns=[wye wye wye],kvs=[7.967 0.12 0.12],kvas=[35.000000000 35.000000000 35.000000000],Taps=[1,1.000000000,1.000000000],XHL=2.475000000,XHT=2.475000000,XLT=1.650000000,%loadloss=1.293000000,%noloadloss=0.342857000
new transformer.1094736 Phases=1,Windings=3,Buses=[BMT140178609.2 BBT140178644.1.0 BBT140178644.0.2],Conns=[wye wye wye],kvs=[7.967 0.12 0.12],kvas=[5.000000000 5.000000000 5.000000000],Taps=[1,1.000000000,1.000000000],XHL=1.628000000,XHT=1.628000000,XLT=1.085000000,%loadloss=1.900000000,%noloadloss=0.600000000
new transformer.1110157 Phases=1,Windings=3,Buses=[BMT156625257.2 BBT144436492.1.0 BBT144436492.0.2],Conns=[wye wye wye],kvs=[7.967 0.12 0.12],kvas=[10.000000000 10.000000000 10.000000000],Taps=[1,1.000000000,1.000000000],XHL=1.877000000,XHT=1.877000000,XLT=1.252000000,%loadloss=1.800000000,%noloadloss=0.450000000
new transformer.308804 Phases=1,Windings=3,Buses=[BMT164999056.1 BBT1379482.1.0 BBT1379482.0.2],Conns=[wye wye wye],kvs=[7.967 0.12 0.12],kvas=[10.000000000 10.000000000 10.000000000],Taps=[1,1.000000000,1.000000000],XHL=1.877000000,XHT=1.877000000,XLT=1.252000000,%loadloss=1.800000000,%noloadloss=0.450000000
new transformer.308853 Phases=1,Windings=3,Buses=[BMT161497297.1 BBT1379783.1.0 BBT1379783.0.2],Conns=[wye wye wye],kvs=[7.967 0.12 0.12],kvas=[35.000000000 35.000000000 35.000000000],Taps=[1,1.000000000,1.000000000],XHL=2.475000000,XHT=2.475000000,XLT=1.650000000,%loadloss=1.293000000,%noloadloss=0.342857000
new transformer.308895 Phases=1,Windings=3,Buses=[BMT163088132.1 BBT1380063.1.0 BBT1380063.0.2],Conns=[wye wye wye],kvs=[7.967 0.12 0.12],kvas=[15.000000000 15.000000000 15.000000000],Taps=[1,1.000000000,1.000000000],XHL=2.123000000,XHT=2.123000000,XLT=1.415000000,%loadloss=1.600000000,%noloadloss=0.400000000
new transformer.308909 Phases=1,Windings=3,Buses=[BMT163088136.1 BBT1380210.1.0 BBT1380210.0.2],Conns=[wye wye wye],kvs=[7.967 0.12 0.12],kvas=[35.000000000 35.000000000 35.000000000],Taps=[1,1.000000000,1.000000000],XHL=2.475000000,XHT=2.475000000,XLT=1.650000000,%loadloss=1.293000000,%noloadloss=0.342857000
new transformer.308930 Phases=1,Windings=3,Buses=[BMT163088133.1 BBT1380413.1.0 BBT1380413.0.2],Conns=[wye wye wye],kvs=[7.967 0.12 0.12],kvas=[15.000000000 15.000000000 15.000000000],Taps=[1,1.000000000,1.000000000],XHL=2.123000000,XHT=2.123000000,XLT=1.415000000,%loadloss=1.600000000,%noloadloss=0.400000000
new transformer.309028 Phases=1,Windings=3,Buses=[BMT163088140.1 BBT1381169.1.0 BBT1381169.0.2],Conns=[wye wye wye],kvs=[7.967 0.12 0.12],kvas=[10.000000000 10.000000000 10.000000000],Taps=[1,1.000000000,1.000000000],XHL=1.877000000,XHT=1.877000000,XLT=1.252000000,%loadloss=1.800000000,%noloadloss=0.450000000
new transformer.309070 Phases=1,Windings=3,Buses=[BMT163088130.1 BBT1381449.1.0 BBT1381449.0.2],Conns=[wye wye wye],kvs=[7.967 0.12 0.12],kvas=[15.000000000 15.000000000 15.000000000],Taps=[1,1.000000000,1.000000000],XHL=2.123000000,XHT=2.123000000,XLT=1.415000000,%loadloss=1.600000000,%noloadloss=0.400000000
new transformer.314404 Phases=1,Windings=3,Buses=[BMT166240203.2 BBT1399502.1.0 BBT1399502.0.2],Conns=[wye wye wye],kvs=[7.967 0.12 0.12],kvas=[35.000000000 35.000000000 35.000000000],Taps=[1,1.000000000,1.000000000],XHL=2.475000000,XHT=2.475000000,XLT=1.650000000,%loadloss=1.293000000,%noloadloss=0.342857000
new transformer.526833 Phases=3,Windings=2,Buses=[BMT171501719.1.2.3 BBT2444763.1.2.3.0],Conns=[delta wye],kvs=[13.8 0.22],kvas=[45.000000000 45.000000000],Taps=[1,1.000000000],XHL=3.636000000,%loadloss=1.522000000,%noloadloss=0.377777000
new transformer.744715 Phases=1,Windings=3,Buses=[BMT140178602.2 BBT4169185.1.0 BBT4169185.0.2],Conns=[wye wye wye],kvs=[7.967 0.12 0.12],kvas=[5.000000000 5.000000000 5.000000000],Taps=[1,1.000000000,1.000000000],XHL=1.628000000,XHT=1.628000000,XLT=1.085000000,%loadloss=1.900000000,%noloadloss=0.600000000
new transformer.820672 Phases=3,Windings=2,Buses=[BMT148509629.1.2.3 BBT4978294.1.2.3.0],Conns=[delta wye],kvs=[13.8 0.22],kvas=[45.000000000 45.000000000],Taps=[1,1.000000000],XHL=3.636000000,%loadloss=1.522000000,%noloadloss=0.377777000
new transformer.1026703 Phases=1,Windings=3,Buses=[BMT144435456.2 BBT95090622.1.0 BBT95090622.0.2],Conns=[wye wye wye],kvs=[7.967 0.12 0.12],kvas=[15.000000000 15.000000000 15.000000000],Taps=[1,1.000000000,1.000000000],XHL=2.123000000,XHT=2.123000000,XLT=1.415000000,%loadloss=1.600000000,%noloadloss=0.400000000
new transformer.1399406 Phases=3,Windings=2,Buses=[BMT171501728.1.2.3 BBT150193081.1.2.3.0],Conns=[delta wye],kvs=[13.8 0.22],kvas=[75.000000000 75.000000000],Taps=[1,1.000000000],XHL=3.721000000,%loadloss=1.340000000,%noloadloss=0.340000000
new transformer.1411154 Phases=1,Windings=3,Buses=[BMT164449484.2 BBT153084595.1.0 BBT153084595.0.2],Conns=[wye wye wye],kvs=[7.967 0.12 0.12],kvas=[15.000000000 15.000000000 15.000000000],Taps=[1,1.000000000,1.000000000],XHL=2.123000000,XHT=2.123000000,XLT=1.415000000,%loadloss=1.600000000,%noloadloss=0.400000000
new transformer.1416768 Phases=1,Windings=3,Buses=[BMT166240213.2 BBT154357423.1.0 BBT154357423.0.2],Conns=[wye wye wye],kvs=[7.967 0.12 0.12],kvas=[10.000000000 10.000000000 10.000000000],Taps=[1,1.000000000,1.000000000],XHL=1.877000000,XHT=1.877000000,XLT=1.252000000,%loadloss=1.800000000,%noloadloss=0.450000000
new transformer.1468772 Phases=1,Windings=3,Buses=[BMT166241003.2 BBT166241004.1.0 BBT166241004.0.2],Conns=[wye wye wye],kvs=[7.967 0.12 0.12],kvas=[10.000000000 10.000000000 10.000000000],Taps=[1,1.000000000,1.000000000],XHL=1.877000000,XHT=1.877000000,XLT=1.252000000,%loadloss=1.800000000,%noloadloss=0.450000000
new transformer.299900 Phases=1,Windings=3,Buses=[BMT126911404.2 BBT1259873.1.0 BBT1259873.0.2],Conns=[wye wye wye],kvs=[7.967 0.12 0.12],kvas=[15.000000000 15.000000000 15.000000000],Taps=[1,1.000000000,1.000000000],XHL=2.123000000,XHT=2.123000000,XLT=1.415000000,%loadloss=1.600000000,%noloadloss=0.400000000
new transformer.299956 Phases=3,Windings=2,Buses=[BMT172026858.1.2.3 BBT1260496.1.2.3.0],Conns=[delta wye],kvs=[13.8 0.22],kvas=[45.000000000 45.000000000],Taps=[1,1.000000000],XHL=3.636000000,%loadloss=1.522000000,%noloadloss=0.377777000
new transformer.299963 Phases=1,Windings=3,Buses=[BMT126911369.2 BBT1260566.1.0 BBT1260566.0.2],Conns=[wye wye wye],kvs=[7.967 0.12 0.12],kvas=[35.000000000 35.000000000 35.000000000],Taps=[1,1.000000000,1.000000000],XHL=2.475000000,XHT=2.475000000,XLT=1.650000000,%loadloss=1.293000000,%noloadloss=0.342857000
new transformer.299970 Phases=1,Windings=3,Buses=[BMT126911376.2 BBT1260615.1.0 BBT1260615.0.2],Conns=[wye wye wye],kvs=[7.967 0.12 0.12],kvas=[35.000000000 35.000000000 35.000000000],Taps=[1,1.000000000,1.000000000],XHL=2.475000000,XHT=2.475000000,XLT=1.650000000,%loadloss=1.293000000,%noloadloss=0.342857000
new transformer.299977 Phases=3,Windings=2,Buses=[BMT126911439.1.2.3 BBT1260699.1.2.3.0],Conns=[delta wye],kvs=[13.8 0.22],kvas=[45.000000000 45.000000000],Taps=[1,1.000000000],XHL=3.636000000,%loadloss=1.522000000,%noloadloss=0.377777000
new transformer.299991 Phases=1,Windings=3,Buses=[BMT152264317.2 BBT1260930.1.0 BBT1260930.0.2],Conns=[wye wye wye],kvs=[7.967 0.12 0.12],kvas=[15.000000000 15.000000000 15.000000000],Taps=[1,1.000000000,1.000000000],XHL=2.123000000,XHT=2.123000000,XLT=1.415000000,%loadloss=1.600000000,%noloadloss=0.400000000
new transformer.307635 Phases=1,Windings=3,Buses=[BMT135534312.2 BBT1374967.1.0 BBT1374967.0.2],Conns=[wye wye wye],kvs=[7.967 0.12 0.12],kvas=[10.000000000 10.000000000 10.000000000],Taps=[1,1.000000000,1.000000000],XHL=1.877000000,XHT=1.877000000,XLT=1.252000000,%loadloss=1.800000000,%noloadloss=0.450000000
new transformer.310967 Phases=1,Windings=3,Buses=[BMT149402572.1 BBT1387847.1.0 BBT1387847.0.2],Conns=[wye wye wye],kvs=[7.967 0.12 0.12],kvas=[10.000000000 10.000000000 10.000000000],Taps=[1,1.000000000,1.000000000],XHL=1.877000000,XHT=1.877000000,XLT=1.252000000,%loadloss=1.800000000,%noloadloss=0.450000000
new transformer.316616 Phases=1,Windings=3,Buses=[BMT164177550.2 BBT1408077.1.0 BBT1408077.0.2],Conns=[wye wye wye],kvs=[7.967 0.12 0.12],kvas=[10.000000000 10.000000000 10.000000000],Taps=[1,1.000000000,1.000000000],XHL=1.877000000,XHT=1.877000000,XLT=1.252000000,%loadloss=1.800000000,%noloadloss=0.450000000
new transformer.316623 Phases=1,Windings=3,Buses=[BMT164177553.2 BBT1408091.1.0 BBT1408091.0.2],Conns=[wye wye wye],kvs=[7.967 0.12 0.12],kvas=[10.000000000 10.000000000 10.000000000],Taps=[1,1.000000000,1.000000000],XHL=1.877000000,XHT=1.877000000,XLT=1.252000000,%loadloss=1.800000000,%noloadloss=0.450000000
new transformer.321761 Phases=1,Windings=3,Buses=[BMT126912447.1 BBT1419137.1.0 BBT1419137.0.2],Conns=[wye wye wye],kvs=[7.967 0.12 0.12],kvas=[15.000000000 15.000000000 15.000000000],Taps=[1,1.000000000,1.000000000],XHL=2.123000000,XHT=2.123000000,XLT=1.415000000,%loadloss=1.600000000,%noloadloss=0.400000000
new transformer.321936 Phases=1,Windings=3,Buses=[BMT163088124.1 BBT1419627.1.0 BBT1419627.0.2],Conns=[wye wye wye],kvs=[7.967 0.12 0.12],kvas=[15.000000000 15.000000000 15.000000000],Taps=[1,1.000000000,1.000000000],XHL=2.123000000,XHT=2.123000000,XLT=1.415000000,%loadloss=1.600000000,%noloadloss=0.400000000
new transformer.321943 Phases=1,Windings=3,Buses=[BMT163088125.1 BBT1419767.1.0 BBT1419767.0.2],Conns=[wye wye wye],kvs=[7.967 0.12 0.12],kvas=[15.000000000 15.000000000 15.000000000],Taps=[1,1.000000000,1.000000000],XHL=2.123000000,XHT=2.123000000,XLT=1.415000000,%loadloss=1.600000000,%noloadloss=0.400000000
new transformer.705991 Phases=1,Windings=3,Buses=[BMT152712079.2 BBT3856215.1.0 BBT3856215.0.2],Conns=[wye wye wye],kvs=[7.967 0.12 0.12],kvas=[5.000000000 5.000000000 5.000000000],Taps=[1,1.000000000,1.000000000],XHL=1.628000000,XHT=1.628000000,XLT=1.085000000,%loadloss=1.900000000,%noloadloss=0.600000000
new transformer.823885 Phases=1,Windings=3,Buses=[BMT163088134.1 BBT5195357.1.0 BBT5195357.0.2],Conns=[wye wye wye],kvs=[7.967 0.12 0.12],kvas=[5.000000000 5.000000000 5.000000000],Taps=[1,1.000000000,1.000000000],XHL=1.628000000,XHT=1.628000000,XLT=1.085000000,%loadloss=1.900000000,%noloadloss=0.600000000
new transformer.824347 Phases=1,Windings=3,Buses=[BMT135534494.2 BBT5217694.1.0 BBT5217694.0.2],Conns=[wye wye wye],kvs=[7.967 0.12 0.12],kvas=[15.000000000 15.000000000 15.000000000],Taps=[1,1.000000000,1.000000000],XHL=2.123000000,XHT=2.123000000,XLT=1.415000000,%loadloss=1.600000000,%noloadloss=0.400000000
new transformer.824410 Phases=1,Windings=3,Buses=[BMT126912713.1 BBT5218065.1.0 BBT5218065.0.2],Conns=[wye wye wye],kvs=[7.967 0.12 0.12],kvas=[5.000000000 5.000000000 5.000000000],Taps=[1,1.000000000,1.000000000],XHL=1.628000000,XHT=1.628000000,XLT=1.085000000,%loadloss=1.900000000,%noloadloss=0.600000000
new transformer.825348 Phases=1,Windings=3,Buses=[BMT135536727.2 BBT5303101.1.0 BBT5303101.0.2],Conns=[wye wye wye],kvs=[7.967 0.12 0.12],kvas=[5.000000000 5.000000000 5.000000000],Taps=[1,1.000000000,1.000000000],XHL=1.628000000,XHT=1.628000000,XLT=1.085000000,%loadloss=1.900000000,%noloadloss=0.600000000
new transformer.875930 Phases=1,Windings=3,Buses=[BMT169728045.3 BBT17569418.1.0 BBT17569418.0.2],Conns=[wye wye wye],kvs=[7.967 0.12 0.12],kvas=[15.000000000 15.000000000 15.000000000],Taps=[1,1.000000000,1.000000000],XHL=2.123000000,XHT=2.123000000,XLT=1.415000000,%loadloss=1.600000000,%noloadloss=0.400000000
new transformer.921528 Phases=3,Windings=2,Buses=[BMT152264324.1.2.3 BBT37829019.1.2.3.0],Conns=[delta wye],kvs=[13.8 0.22],kvas=[30.000000000 30.000000000],Taps=[1,1.000000000],XHL=3.564000000,%loadloss=1.667000000,%noloadloss=0.433333000
new transformer.1080876 Phases=1,Windings=3,Buses=[BMT159241835.2 BBT136322015.1.0 BBT136322015.0.2],Conns=[wye wye wye],kvs=[7.967 0.12 0.12],kvas=[35.000000000 35.000000000 35.000000000],Taps=[1,1.000000000,1.000000000],XHL=2.475000000,XHT=2.475000000,XLT=1.650000000,%loadloss=1.293000000,%noloadloss=0.342857000
new transformer.1393881 Phases=1,Windings=3,Buses=[BMT148938063.2 BBT148937542.1.0 BBT148937542.0.2],Conns=[wye wye wye],kvs=[7.967 0.12 0.12],kvas=[5.000000000 5.000000000 5.000000000],Taps=[1,1.000000000,1.000000000],XHL=1.628000000,XHT=1.628000000,XLT=1.085000000,%loadloss=1.900000000,%noloadloss=0.600000000
new transformer.1393883 Phases=1,Windings=3,Buses=[BMT148938065.2 BBT148937764.1.0 BBT148937764.0.2],Conns=[wye wye wye],kvs=[7.967 0.12 0.12],kvas=[35.000000000 35.000000000 35.000000000],Taps=[1,1.000000000,1.000000000],XHL=2.475000000,XHT=2.475000000,XLT=1.650000000,%loadloss=1.293000000,%noloadloss=0.342857000
new transformer.1393884 Phases=1,Windings=3,Buses=[BMT148938066.2 BBT148938067.1.0 BBT148938067.0.2],Conns=[wye wye wye],kvs=[7.967 0.12 0.12],kvas=[10.000000000 10.000000000 10.000000000],Taps=[1,1.000000000,1.000000000],XHL=1.877000000,XHT=1.877000000,XLT=1.252000000,%loadloss=1.800000000,%noloadloss=0.450000000
new transformer.1459189 Phases=1,Windings=3,Buses=[BMT164211403.2 BBT164178212.1.0 BBT164178212.0.2],Conns=[wye wye wye],kvs=[7.967 0.12 0.12],kvas=[15.000000000 15.000000000 15.000000000],Taps=[1,1.000000000,1.000000000],XHL=2.123000000,XHT=2.123000000,XLT=1.415000000,%loadloss=1.600000000,%noloadloss=0.400000000
new transformer.478456 Phases=1,Windings=3,Buses=[BMT164999045.1 BBT2224130.1.0 BBT2224130.0.2],Conns=[wye wye wye],kvs=[7.967 0.12 0.12],kvas=[10.000000000 10.000000000 10.000000000],Taps=[1,1.000000000,1.000000000],XHL=1.877000000,XHT=1.877000000,XLT=1.252000000,%loadloss=1.800000000,%noloadloss=0.450000000
new transformer.478470 Phases=1,Windings=3,Buses=[BMT135505458.3 BBT2224186.1.0 BBT2224186.0.2],Conns=[wye wye wye],kvs=[7.967 0.12 0.12],kvas=[15.000000000 15.000000000 15.000000000],Taps=[1,1.000000000,1.000000000],XHL=2.123000000,XHT=2.123000000,XLT=1.415000000,%loadloss=1.600000000,%noloadloss=0.400000000
new transformer.492092 Phases=1,Windings=3,Buses=[BMT135505465.3 BBT2296979.1.0 BBT2296979.0.2],Conns=[wye wye wye],kvs=[7.967 0.12 0.12],kvas=[5.000000000 5.000000000 5.000000000],Taps=[1,1.000000000,1.000000000],XHL=1.628000000,XHT=1.628000000,XLT=1.085000000,%loadloss=1.900000000,%noloadloss=0.600000000
new transformer.530711 Phases=1,Windings=3,Buses=[BMT171501734.2 BBT2460198.1.0 BBT2460198.0.2],Conns=[wye wye wye],kvs=[7.967 0.12 0.12],kvas=[10.000000000 10.000000000 10.000000000],Taps=[1,1.000000000,1.000000000],XHL=1.877000000,XHT=1.877000000,XLT=1.252000000,%loadloss=1.800000000,%noloadloss=0.450000000
new transformer.530858 Phases=1,Windings=3,Buses=[BMT160446730.1 BBT2460919.1.0 BBT2460919.0.2],Conns=[wye wye wye],kvs=[7.967 0.12 0.12],kvas=[5.000000000 5.000000000 5.000000000],Taps=[1,1.000000000,1.000000000],XHL=1.628000000,XHT=1.628000000,XLT=1.085000000,%loadloss=1.900000000,%noloadloss=0.600000000
new transformer.577366 Phases=3,Windings=2,Buses=[BMT162262932.1.2.3 BBT2842167.1.2.3.0],Conns=[delta wye],kvs=[13.8 0.22],kvas=[150.000000000 150.000000000],Taps=[1,1.000000000],XHL=3.805000000,%loadloss=1.127000000,%noloadloss=0.280000000
new transformer.701700 Phases=1,Windings=3,Buses=[BMT159241838.2 BBT3804933.1.0 BBT3804933.0.2],Conns=[wye wye wye],kvs=[7.967 0.12 0.12],kvas=[5.000000000 5.000000000 5.000000000],Taps=[1,1.000000000,1.000000000],XHL=1.628000000,XHT=1.628000000,XLT=1.085000000,%loadloss=1.900000000,%noloadloss=0.600000000
new transformer.850331 Phases=1,Windings=3,Buses=[BMT148937359.2 BBT6258461.1.0 BBT6258461.0.2],Conns=[wye wye wye],kvs=[7.967 0.12 0.12],kvas=[15.000000000 15.000000000 15.000000000],Taps=[1,1.000000000,1.000000000],XHL=2.123000000,XHT=2.123000000,XLT=1.415000000,%loadloss=1.600000000,%noloadloss=0.400000000
new transformer.304233 Phases=3,Windings=2,Buses=[BMT150886750.1.2.3 BBT1325820.1.2.3.0],Conns=[delta wye],kvs=[13.8 0.22],kvas=[45.000000000 45.000000000],Taps=[1,1.000000000],XHL=3.636000000,%loadloss=1.522000000,%noloadloss=0.377777000
new transformer.304240 Phases=3,Windings=2,Buses=[BMT126914197.1.2.3 BBT1325911.1.2.3.0],Conns=[delta wye],kvs=[13.8 0.22],kvas=[150.000000000 150.000000000],Taps=[1,1.000000000],XHL=3.805000000,%loadloss=1.127000000,%noloadloss=0.280000000
new transformer.304254 Phases=3,Windings=2,Buses=[BMT154030242.1.2.3 BBT1326058.1.2.3.0],Conns=[delta wye],kvs=[13.8 0.22],kvas=[75.000000000 75.000000000],Taps=[1,1.000000000],XHL=3.721000000,%loadloss=1.340000000,%noloadloss=0.340000000
new transformer.304268 Phases=3,Windings=2,Buses=[BMT150886754.1.2.3 BBT1326324.1.2.3.0],Conns=[delta wye],kvs=[13.8 0.22],kvas=[30.000000000 30.000000000],Taps=[1,1.000000000],XHL=3.564000000,%loadloss=1.667000000,%noloadloss=0.433333000
new transformer.304282 Phases=3,Windings=2,Buses=[BMT173131732.1.2.3 BBT1326520.1.2.3.0],Conns=[delta wye],kvs=[13.8 0.22],kvas=[150.000000000 150.000000000],Taps=[1,1.000000000],XHL=3.805000000,%loadloss=1.127000000,%noloadloss=0.280000000
new transformer.304289 Phases=3,Windings=2,Buses=[BMT154030245.1.2.3 BBT1326590.1.2.3.0],Conns=[delta wye],kvs=[13.8 0.22],kvas=[75.000000000 75.000000000],Taps=[1,1.000000000],XHL=3.721000000,%loadloss=1.340000000,%noloadloss=0.340000000
new transformer.304296 Phases=1,Windings=3,Buses=[BMT126914792.2 BBT1326709.1.0 BBT1326709.0.2],Conns=[wye wye wye],kvs=[7.967 0.12 0.12],kvas=[35.000000000 35.000000000 35.000000000],Taps=[1,1.000000000,1.000000000],XHL=2.475000000,XHT=2.475000000,XLT=1.650000000,%loadloss=1.293000000,%noloadloss=0.342857000
new transformer.304310 Phases=3,Windings=2,Buses=[BMT161623347.1.2.3 BBT1326891.1.2.3.0],Conns=[delta wye],kvs=[13.8 0.22],kvas=[100.000000000 100.000000000],Taps=[1,1.000000000],XHL=3.771000000,%loadloss=1.218000000,%noloadloss=0.335000000
new transformer.304324 Phases=1,Windings=3,Buses=[BMT126914589.2 BBT1327171.1.0 BBT1327171.0.2],Conns=[wye wye wye],kvs=[7.967 0.12 0.12],kvas=[25.000000000 25.000000000 25.000000000],Taps=[1,1.000000000,1.000000000],XHL=2.344000000,XHT=2.344000000,XLT=1.563000000,%loadloss=1.420000000,%noloadloss=0.320000000
new transformer.304331 Phases=3,Windings=2,Buses=[BMT161623359.1.2.3 BBT1327339.1.2.3.0],Conns=[delta wye],kvs=[13.8 0.22],kvas=[45.000000000 45.000000000],Taps=[1,1.000000000],XHL=3.636000000,%loadloss=1.522000000,%noloadloss=0.377777000
new transformer.304387 Phases=3,Windings=2,Buses=[BMT126914596.1.2.3 BBT1328333.1.2.3.0],Conns=[delta wye],kvs=[13.8 0.22],kvas=[100.000000000 100.000000000],Taps=[1,1.000000000],XHL=3.771000000,%loadloss=1.218000000,%noloadloss=0.335000000
new transformer.304408 Phases=3,Windings=2,Buses=[BMT154030240.1.2.3 BBT1328690.1.2.3.0],Conns=[delta wye],kvs=[13.8 0.22],kvas=[75.000000000 75.000000000],Taps=[1,1.000000000],XHL=3.721000000,%loadloss=1.340000000,%noloadloss=0.340000000
new transformer.591128 Phases=1,Windings=3,Buses=[BMT135495539.3 BBT2940643.1.0 BBT2940643.0.2],Conns=[wye wye wye],kvs=[7.967 0.12 0.12],kvas=[15.000000000 15.000000000 15.000000000],Taps=[1,1.000000000,1.000000000],XHL=2.123000000,XHT=2.123000000,XLT=1.415000000,%loadloss=1.600000000,%noloadloss=0.400000000
new transformer.690087 Phases=1,Windings=3,Buses=[BMT140178630.2 BBT3697812.1.0 BBT3697812.0.2],Conns=[wye wye wye],kvs=[7.967 0.12 0.12],kvas=[10.000000000 10.000000000 10.000000000],Taps=[1,1.000000000,1.000000000],XHL=1.877000000,XHT=1.877000000,XLT=1.252000000,%loadloss=1.800000000,%noloadloss=0.450000000
new transformer.690094 Phases=1,Windings=3,Buses=[BMT140178616.2 BBT3697826.1.0 BBT3697826.0.2],Conns=[wye wye wye],kvs=[7.967 0.12 0.12],kvas=[5.000000000 5.000000000 5.000000000],Taps=[1,1.000000000,1.000000000],XHL=1.628000000,XHT=1.628000000,XLT=1.085000000,%loadloss=1.900000000,%noloadloss=0.600000000
new transformer.690101 Phases=1,Windings=3,Buses=[BMT140178637.2 BBT3697861.1.0 BBT3697861.0.2],Conns=[wye wye wye],kvs=[7.967 0.12 0.12],kvas=[5.000000000 5.000000000 5.000000000],Taps=[1,1.000000000,1.000000000],XHL=1.628000000,XHT=1.628000000,XLT=1.085000000,%loadloss=1.900000000,%noloadloss=0.600000000
new transformer.717359 Phases=3,Windings=2,Buses=[BMT171221980.1.2.3 BBT3949273.1.2.3.0],Conns=[delta wye],kvs=[13.8 0.22],kvas=[75.000000000 75.000000000],Taps=[1,1.000000000],XHL=3.721000000,%loadloss=1.340000000,%noloadloss=0.340000000
new transformer.718227 Phases=1,Windings=3,Buses=[BMT149813716.1 BBT3965562.1.0 BBT3965562.0.2],Conns=[wye wye wye],kvs=[7.967 0.12 0.12],kvas=[15.000000000 15.000000000 15.000000000],Taps=[1,1.000000000,1.000000000],XHL=2.123000000,XHT=2.123000000,XLT=1.415000000,%loadloss=1.600000000,%noloadloss=0.400000000
new transformer.861195 Phases=1,Windings=3,Buses=[BMT164999049.1 BBT8551479.1.0 BBT8551479.0.2],Conns=[wye wye wye],kvs=[7.967 0.12 0.12],kvas=[5.000000000 5.000000000 5.000000000],Taps=[1,1.000000000,1.000000000],XHL=1.628000000,XHT=1.628000000,XLT=1.085000000,%loadloss=1.900000000,%noloadloss=0.600000000
new transformer.861202 Phases=1,Windings=3,Buses=[BMT164999050.1 BBT8552571.1.0 BBT8552571.0.2],Conns=[wye wye wye],kvs=[7.967 0.12 0.12],kvas=[5.000000000 5.000000000 5.000000000],Taps=[1,1.000000000,1.000000000],XHL=1.628000000,XHT=1.628000000,XLT=1.085000000,%loadloss=1.900000000,%noloadloss=0.600000000
new transformer.1068444 Phases=1,Windings=3,Buses=[BMT150874632.3 BBT132687146.1.0 BBT132687146.0.2],Conns=[wye wye wye],kvs=[7.967 0.12 0.12],kvas=[35.000000000 35.000000000 35.000000000],Taps=[1,1.000000000,1.000000000],XHL=2.475000000,XHT=2.475000000,XLT=1.650000000,%loadloss=1.293000000,%noloadloss=0.342857000
new transformer.1068458 Phases=1,Windings=3,Buses=[BMT150874634.3 BBT132690212.1.0 BBT132690212.0.2],Conns=[wye wye wye],kvs=[7.967 0.12 0.12],kvas=[35.000000000 35.000000000 35.000000000],Taps=[1,1.000000000,1.000000000],XHL=2.475000000,XHT=2.475000000,XLT=1.650000000,%loadloss=1.293000000,%noloadloss=0.342857000
new transformer.1069921 Phases=3,Windings=2,Buses=[BMT171501724.1.2.3 BBT133122490.1.2.3.0],Conns=[delta wye],kvs=[13.8 0.22],kvas=[30.000000000 30.000000000],Taps=[1,1.000000000],XHL=3.564000000,%loadloss=1.667000000,%noloadloss=0.433333000
new transformer.1460071 Phases=3,Windings=2,Buses=[BMT164401543.1.2.3 BBT164401139.1.2.3.0],Conns=[delta wye],kvs=[13.8 0.22],kvas=[45.000000000 45.000000000],Taps=[1,1.000000000],XHL=3.636000000,%loadloss=1.522000000,%noloadloss=0.377777000
new transformer.1460422 Phases=1,Windings=3,Buses=[BMT164452113.2 BBT164452114.1.0 BBT164452114.0.2],Conns=[wye wye wye],kvs=[7.967 0.12 0.12],kvas=[10.000000000 10.000000000 10.000000000],Taps=[1,1.000000000,1.000000000],XHL=1.877000000,XHT=1.877000000,XLT=1.252000000,%loadloss=1.800000000,%noloadloss=0.450000000
new transformer.1493495 Phases=3,Windings=2,Buses=[BMT171501721.1.2.3 BBT170661972.1.2.3.0],Conns=[delta wye],kvs=[13.8 0.22],kvas=[150.000000000 150.000000000],Taps=[1,1.000000000],XHL=3.805000000,%loadloss=1.127000000,%noloadloss=0.280000000
new transformer.309343 Phases=1,Windings=3,Buses=[BMT126912405.1 BBT1382492.1.0 BBT1382492.0.2],Conns=[wye wye wye],kvs=[7.967 0.12 0.12],kvas=[15.000000000 15.000000000 15.000000000],Taps=[1,1.000000000,1.000000000],XHL=2.123000000,XHT=2.123000000,XLT=1.415000000,%loadloss=1.600000000,%noloadloss=0.400000000
new transformer.309371 Phases=1,Windings=3,Buses=[BMT163088139.1 BBT1382562.1.0 BBT1382562.0.2],Conns=[wye wye wye],kvs=[7.967 0.12 0.12],kvas=[15.000000000 15.000000000 15.000000000],Taps=[1,1.000000000,1.000000000],XHL=2.123000000,XHT=2.123000000,XLT=1.415000000,%loadloss=1.600000000,%noloadloss=0.400000000
new transformer.309399 Phases=1,Windings=3,Buses=[BMT163088129.1 BBT1382695.1.0 BBT1382695.0.2],Conns=[wye wye wye],kvs=[7.967 0.12 0.12],kvas=[25.000000000 25.000000000 25.000000000],Taps=[1,1.000000000,1.000000000],XHL=2.344000000,XHT=2.344000000,XLT=1.563000000,%loadloss=1.420000000,%noloadloss=0.320000000
new transformer.309532 Phases=1,Windings=3,Buses=[BMT126912419.1 BBT1383311.1.0 BBT1383311.0.2],Conns=[wye wye wye],kvs=[7.967 0.12 0.12],kvas=[15.000000000 15.000000000 15.000000000],Taps=[1,1.000000000,1.000000000],XHL=2.123000000,XHT=2.123000000,XLT=1.415000000,%loadloss=1.600000000,%noloadloss=0.400000000
new transformer.315531 Phases=3,Windings=2,Buses=[BMT172027319.1.2.3 BBT1404297.1.2.3.0],Conns=[delta wye],kvs=[13.8 0.22],kvas=[45.000000000 45.000000000],Taps=[1,1.000000000],XHL=3.636000000,%loadloss=1.522000000,%noloadloss=0.377777000
new transformer.315755 Phases=1,Windings=3,Buses=[BMT126911425.3 BBT1405004.1.0 BBT1405004.0.2],Conns=[wye wye wye],kvs=[7.967 0.12 0.12],kvas=[35.000000000 35.000000000 35.000000000],Taps=[1,1.000000000,1.000000000],XHL=2.475000000,XHT=2.475000000,XLT=1.650000000,%loadloss=1.293000000,%noloadloss=0.342857000
new transformer.315965 Phases=1,Windings=3,Buses=[BMT152264321.3 BBT1405970.1.0 BBT1405970.0.2],Conns=[wye wye wye],kvs=[7.967 0.12 0.12],kvas=[15.000000000 15.000000000 15.000000000],Taps=[1,1.000000000,1.000000000],XHL=2.123000000,XHT=2.123000000,XLT=1.415000000,%loadloss=1.600000000,%noloadloss=0.400000000
new transformer.477000 Phases=1,Windings=3,Buses=[BMT171501737.2 BBT2218936.1.0 BBT2218936.0.2],Conns=[wye wye wye],kvs=[7.967 0.12 0.12],kvas=[10.000000000 10.000000000 10.000000000],Taps=[1,1.000000000,1.000000000],XHL=1.877000000,XHT=1.877000000,XLT=1.252000000,%loadloss=1.800000000,%noloadloss=0.450000000
new transformer.477063 Phases=1,Windings=3,Buses=[BMT126912524.1 BBT2219125.1.0 BBT2219125.0.2],Conns=[wye wye wye],kvs=[7.967 0.12 0.12],kvas=[10.000000000 10.000000000 10.000000000],Taps=[1,1.000000000,1.000000000],XHL=1.877000000,XHT=1.877000000,XLT=1.252000000,%loadloss=1.800000000,%noloadloss=0.450000000
new transformer.786939 Phases=1,Windings=3,Buses=[BMT161627548.2 BBT4567905.1.0 BBT4567905.0.2],Conns=[wye wye wye],kvs=[7.967 0.12 0.12],kvas=[10.000000000 10.000000000 10.000000000],Taps=[1,1.000000000,1.000000000],XHL=1.877000000,XHT=1.877000000,XLT=1.252000000,%loadloss=1.800000000,%noloadloss=0.450000000
...