2024_89_CemigReconfigurationCases/1_AlimsCemig/VZPU08/VZPU08SegmentosBT.dss
new line.1165191 bus1=BBT1260601.1.2.0,bus2=BBT1260608.1.2.0,Phases=2,Linecode=BT807_BT807_4_2_3,Length=0.036893000,Units=km
new line.1165198 bus1=BBT1260615.1.2.0,bus2=BBT1260622.1.2.0,Phases=2,Linecode=BT513_BT513_7_2_1,Length=0.000501000,Units=km
new line.1165205 bus1=BBT1260622.1.2.0,bus2=BBT1260629.1.2.0,Phases=2,Linecode=BT807_BT807_4_2_3,Length=0.035454000,Units=km
new line.1165212 bus1=BBT1260622.1.2.0,bus2=BBT1260657.1.2.0,Phases=2,Linecode=BT807_BT807_4_2_3,Length=0.038486000,Units=km
new line.1165219 bus1=BBT1260629.1.2.0,bus2=BBT1260636.1.2.0,Phases=2,Linecode=BT801_BT801_4_2_3,Length=0.036784000,Units=km
new line.1165226 bus1=BBT1260629.1.2.0,bus2=BBT1260643.1.2.0,Phases=2,Linecode=BT807_BT807_4_2_3,Length=0.037378000,Units=km
new line.1165233 bus1=BBT1260629.1.2.0,bus2=BBT1260678.1.2.0,Phases=2,Linecode=BT801_BT801_4_2_3,Length=0.031636000,Units=km
new line.1165240 bus1=BBT1260643.1.2.0,bus2=BBT1260650.1.2.0,Phases=2,Linecode=BT807_BT807_4_2_3,Length=0.031061000,Units=km
new line.1165247 bus1=BBT1260657.1.2.0,bus2=BBT1260664.1.2.0,Phases=2,Linecode=BT807_BT807_4_2_3,Length=0.036360000,Units=km
new line.1165254 bus1=BBT1260664.1.2.0,bus2=BBT1260671.1.2.0,Phases=2,Linecode=BT807_BT807_4_2_3,Length=0.042971000,Units=km
new line.1165261 bus1=BBT1260678.1.2.0,bus2=BBT1260685.1.2.0,Phases=2,Linecode=BT801_BT801_4_2_3,Length=0.027868000,Units=km
new line.1165268 bus1=BBT1260685.1.2.0,bus2=BBT1260692.1.2.0,Phases=2,Linecode=BT801_BT801_4_2_3,Length=0.029559000,Units=km
new line.1165275 bus1=BBT1260706.1.2.3.0,bus2=BBT1260720.1.2.3.0,Phases=3,Linecode=BT803_BT803_4_3_4,Length=0.034073000,Units=km
new line.1165282 bus1=BBT1260713.1.2.3.0,bus2=BBT1260706.1.2.3.0,Phases=3,Linecode=BT803_BT803_4_3_4,Length=0.033150000,Units=km
new line.1165289 bus1=BBT1260699.1.2.3.0,bus2=BBT1260713.1.2.3.0,Phases=3,Linecode=BT518_BT518_7_3_1,Length=0.000501000,Units=km
new line.1165296 bus1=BBT1260713.1.2.3.0,bus2=BBT1260769.1.2.3.0,Phases=3,Linecode=BT803_BT803_4_3_4,Length=0.038225000,Units=km
new line.1165303 bus1=BBT1260720.1.2.3.0,bus2=BBT1260741.1.2.3.0,Phases=3,Linecode=BT803_BT803_4_3_4,Length=0.029029000,Units=km
new line.1165310 bus1=BBT1260727.1.2.3.0,bus2=BBT1260755.1.2.3.0,Phases=3,Linecode=BT803_BT803_4_3_4,Length=0.037069000,Units=km
new line.1165317 bus1=BBT1260741.1.2.3.0,bus2=BBT1260727.1.2.3.0,Phases=3,Linecode=BT803_BT803_4_3_4,Length=0.035014000,Units=km
new line.1165324 bus1=BBT1260741.1.2.3.0,bus2=BBT1260748.1.2.3.0,Phases=3,Linecode=BT809_BT809_4_3_4,Length=0.036511000,Units=km
new line.1165331 bus1=BBT1260755.1.2.3.0,bus2=BBT1260762.1.2.3.0,Phases=3,Linecode=BT803_BT803_4_3_4,Length=0.036139000,Units=km
new line.1165338 bus1=BBT1260762.1.2.3.0,bus2=BBT1260818.1.2.3.0,Phases=3,Linecode=BT810_BT810_4_3_4,Length=0.030162000,Units=km
new line.1165345 bus1=BBT1260769.1.2.3.0,bus2=BBT1260776.1.2.3.0,Phases=3,Linecode=BT803_BT803_4_3_4,Length=0.036139000,Units=km
new line.1165352 bus1=BBT1260776.1.2.3.0,bus2=BBT1260783.1.2.3.0,Phases=3,Linecode=BT803_BT803_4_3_4,Length=0.035370000,Units=km
new line.1165359 bus1=BBT1260783.1.2.3.0,bus2=BBT1260790.1.2.3.0,Phases=3,Linecode=BT809_BT809_4_3_4,Length=0.038486000,Units=km
new line.1165366 bus1=BBT1260790.1.2.3.0,bus2=BBT1260797.1.2.3.0,Phases=3,Linecode=BT809_BT809_4_3_4,Length=0.037351000,Units=km
new line.1165373 bus1=BBT1260797.1.2.3.0,bus2=BBT1260804.1.2.3.0,Phases=3,Linecode=BT809_BT809_4_3_4,Length=0.037870000,Units=km
new line.1165380 bus1=BBT1260804.1.2.3.0,bus2=BBT1260811.1.2.3.0,Phases=3,Linecode=BT809_BT809_4_3_4,Length=0.038094000,Units=km
new line.1165387 bus1=BBT1260811.1.2.3.0,bus2=BBT1260734.1.2.3.0,Phases=3,Linecode=BT809_BT809_4_3_4,Length=0.037870000,Units=km
new line.1165492 bus1=BBT1260944.1.2.0,bus2=BBT1260937.1.2.0,Phases=2,Linecode=BT801_BT801_4_2_3,Length=0.037672000,Units=km
new line.1165499 bus1=BBT1260944.1.2.0,bus2=BBT1260951.1.2.0,Phases=2,Linecode=BT801_BT801_4_2_3,Length=0.032770000,Units=km
new line.1165506 bus1=BBT1260958.1.2.0,bus2=BBT1260944.1.2.0,Phases=2,Linecode=BT807_BT807_4_2_3,Length=0.032770000,Units=km
new line.1165513 bus1=BBT1260930.1.2.0,bus2=BBT1260958.1.2.0,Phases=2,Linecode=BT518_BT518_7_2_1,Length=0.000501000,Units=km
new line.1165520 bus1=BBT1260958.1.2.0,bus2=BBT1260965.1.2.0,Phases=2,Linecode=BT807_BT807_4_2_3,Length=0.031061000,Units=km
new line.1165527 bus1=BBT1318967.1.2.0,bus2=BBT1318974.1.2.0,Phases=2,Linecode=BT108_BT107_7_2_1,Length=0.029626000,Units=km
new line.1165534 bus1=BBT1318967.1.2.0,bus2=BBT1318995.1.2.0,Phases=2,Linecode=BT107_BT106_7_2_1,Length=0.032401000,Units=km
new line.1211734 bus1=BBT1307235.1.2.0,bus2=BBT1307228.1.2.0,Phases=2,Linecode=BT107_BT106_7_2_1,Length=0.035917000,Units=km
new line.1211741 bus1=BBT1307242.1.2.0,bus2=BBT1307235.1.2.0,Phases=2,Linecode=BT107_BT106_7_2_1,Length=0.034943000,Units=km
new line.1211748 bus1=BBT1307256.1.2.0,bus2=BBT1307242.1.2.0,Phases=2,Linecode=BT107_BT106_7_2_1,Length=0.036153000,Units=km
...